Network_88R-030/scenario_13/case.raw
0,100.0,33,0,1,60.0
GRID OPTIMIZATION COMPETITION
INPUT DATA FILES ARE RAW ROP INL CON
39876,'George Nea~2',138.0,1,1,1,1,1.01942909,-66.922863,1.1,0.9,1.1,0.9
39877,'Duane Arno~1',69.0,1,1,1,1,1.01956987,-90.492432,1.1,0.9,1.1,0.9
39879,'Milton L K~1',138.0,1,1,1,1,1.01913559,-100.42339,1.1,0.9,1.1,0.9
39880,'FPL Energy~1',138.0,2,1,1,1,1.0200001,-87.716609,1.1,0.9,1.1,0.9
39881,'Whispering~1',69.0,1,1,1,1,1.02033281,-86.576568,1.1,0.9,1.1,0.9
39882,'Greater De~1',69.0,1,1,1,1,1.02118182,-79.234818,1.1,0.9,1.1,0.9
39883,'Adair Wind~1',69.0,1,1,1,1,1.01686394,-76.780472,1.1,0.9,1.1,0.9
39884,'Emery Stat~1',69.0,1,1,1,1,1.01929343,-84.865401,1.1,0.9,1.1,0.9
39885,'Walnut Win~1',69.0,1,1,1,1,1.02016652,-73.0135,1.1,0.9,1.1,0.9
39886,'Carroll Wi~1',69.0,1,1,1,1,1.0189023,-79.652484,1.1,0.9,1.1,0.9
39887,'FPL Energy~2',69.0,1,1,1,1,1.02095068,-86.642432,1.1,0.9,1.1,0.9
39888,'FPL Energy~4',69.0,1,1,1,1,1.02048254,-81.865268,1.1,0.9,1.1,0.9
39889,'Garden Win~1',69.0,1,1,1,1,1.01901829,-84.014079,1.1,0.9,1.1,0.9
39890,'George Nea~1',230.0,1,1,1,1,1.02019489,-66.864226,1.1,0.9,1.1,0.9
39891,'Riverside',138.0,1,1,1,1,1.01494753,-100.52152,1.1,0.9,1.1,0.9
39892,'River Hills',69.0,1,1,1,1,1.01465821,-80.405834,1.1,0.9,1.1,0.9
39894,'Storm Lake 1',69.0,1,1,1,1,1.0200001,-76.179033,1.1,0.9,1.1,0.9
39895,'Osceola Wi~1',69.0,1,1,1,1,1.01947498,-84.45531,1.1,0.9,1.1,0.9
39896,'Lost Lakes~1',69.0,2,1,1,1,1.0200001,-84.352543,1.1,0.9,1.1,0.9
39898,'Crane Cree~1',69.0,1,1,1,1,1.0211221,-90.72461,1.1,0.9,1.1,0.9
39901,'Sixth Street',69.0,1,1,1,1,1.01452732,-92.518444,1.1,0.9,1.1,0.9
39902,'Earl F Wis~1',69.0,1,1,1,1,1.01500833,-81.18703,1.1,0.9,1.1,0.9
39905,'Northern I~1',69.0,1,1,1,1,1.02039146,-88.911817,1.1,0.9,1.1,0.9
39908,'Sycamore (~1',69.0,2,1,1,1,1.0200001,-78.891342,1.1,0.9,1.1,0.9
39909,'Archer Dan~1',69.0,1,1,1,1,1.01866269,-100.362813,1.1,0.9,1.1,0.9
39912,'Electrifarm',69.0,1,1,1,1,1.01001096,-94.304388,1.1,0.9,1.1,0.9
39914,'Marshalltown',69.0,1,1,1,1,1.01786935,-85.578152,1.1,0.9,1.1,0.9
39915,'Exira',69.0,1,1,1,1,1.02034807,-73.718799,1.1,0.9,1.1,0.9
39917,'Pomeroy Wi~1',69.0,1,1,1,1,1.01953638,-81.822668,1.1,0.9,1.1,0.9
39922,'Lime Creek',69.0,1,1,1,1,1.01439023,-86.946949,1.1,0.9,1.1,0.9
39925,'Pleasant H~1',138.0,1,1,1,1,1.02075636,-79.350167,1.1,0.9,1.1,0.9
39926,'Lansing',69.0,1,1,1,1,1.02103508,-95.706223,1.1,0.9,1.1,0.9
39927,'Sutherland',69.0,1,1,1,1,1.01787806,-85.575597,1.1,0.9,1.1,0.9
39928,'Ames Elect~1',69.0,1,1,1,1,1.01896489,-82.529606,1.1,0.9,1.1,0.9
39929,'Merle Parr',69.0,1,1,1,1,0.99901623,-88.993902,1.1,0.9,1.1,0.9
39931,'Century',69.0,1,1,1,1,1.01567173,-86.499319,1.1,0.9,1.1,0.9
39934,'Pella Peak~1',138.0,1,1,1,1,1.03205967,-82.227029,1.1,0.9,1.1,0.9
39935,'Barton Win~1',69.0,1,1,1,1,1.0147742,-89.75094,1.1,0.9,1.1,0.9
39937,'Muscatine ~1',138.0,1,1,1,1,1.01999795,-95.930745,1.1,0.9,1.1,0.9
39938,'Fair Station',138.0,1,1,1,1,1.01800203,-99.057667,1.1,0.9,1.1,0.9
39939,'Mt Pleasant',69.0,1,1,1,1,0.99393064,-98.858259,1.1,0.9,1.1,0.9
39940,'Gas Turbin~1',69.0,1,1,1,1,1.00048077,-93.911515,1.1,0.9,1.1,0.9
39943,'Prairie Cr~1',69.0,1,1,1,1,1.01632714,-93.293233,1.1,0.9,1.1,0.9
39945,'Intrepid',69.0,1,1,1,1,1.01882434,-76.762693,1.1,0.9,1.1,0.9
39946,'Forest Cit~1',69.0,1,1,1,1,1.01602292,-87.774249,1.1,0.9,1.1,0.9
39952,'Winnebago ~1',69.0,1,1,1,1,1.01885211,-88.172449,1.1,0.9,1.1,0.9
39953,'Braidwood ~1',69.0,1,1,1,1,1.01388586,-112.940224,1.1,0.9,1.1,0.9
39954,'Byron Gene~1',69.0,1,1,1,1,1.00311852,-110.376103,1.1,0.9,1.1,0.9
39955,'LaSalle Ge~1',69.0,1,1,1,1,1.01591146,-112.771286,1.1,0.9,1.1,0.9
39956,'Clinton Po~1',69.0,1,1,1,1,1.01708663,-102.070456,1.1,0.9,1.1,0.9
39957,'Dresden Ge~1',69.0,1,1,1,1,1.01006734,-117.046069,1.1,0.9,1.1,0.9
39958,'Quad Citie~1',345.0,1,1,1,1,1.01901102,-99.611144,1.1,0.9,1.1,0.9
39959,'Powerton',138.0,1,1,1,1,1.01741016,-97.594804,1.1,0.9,1.1,0.9
39960,'Joliet 29',138.0,1,1,1,1,1.01632154,-117.954662,1.1,0.9,1.1,0.9
39961,'Kincaid Ge~1',69.0,1,1,1,1,1.0167942,-97.252755,1.1,0.9,1.1,0.9
39962,'Baldwin En~1',69.0,1,1,1,1,1.01535511,-85.651563,1.1,0.9,1.1,0.9
39963,'Newton',69.0,1,1,1,1,1.01566684,-95.735183,1.1,0.9,1.1,0.9
39964,'Havana',69.0,1,1,1,1,1.01942468,-93.642344,1.1,0.9,1.1,0.9
39965,'Duck Creek',69.0,1,1,1,1,1.01954675,-95.320057,1.1,0.9,1.1,0.9
39966,'Coffeen',69.0,1,1,1,1,1.01712132,-95.7501,1.1,0.9,1.1,0.9
39967,'Fisk Street',69.0,1,1,1,1,0.99363399,-124.06163,1.1,0.9,1.1,0.9
39968,'Joliet 9',138.0,1,1,1,1,1.01672769,-117.944294,1.1,0.9,1.1,0.9
39969,'Waukegan',69.0,1,1,1,1,1.01749456,-118.325255,1.1,0.9,1.1,0.9
39970,'Streator C~1',138.0,1,1,1,1,1.01762426,-111.434072,1.1,0.9,1.1,0.9
39971,'Crawford',69.0,1,1,1,1,0.99221957,-123.452937,1.1,0.9,1.1,0.9
39972,'Grand Towe~1',69.0,1,1,1,1,1.01982939,-80.318025,1.1,0.9,1.1,0.9
39973,'FPL Energy~3',69.0,1,1,1,1,1.01671493,-115.406141,1.1,0.9,1.1,0.9
39974,'Cordova En~1',230.0,1,1,1,1,1.01909208,-100.041289,1.1,0.9,1.1,0.9
39975,'Blackstone~1',69.0,1,1,1,1,1.019575,-110.884426,1.1,0.9,1.1,0.9
39976,'Zion Energ~1',69.0,1,1,1,1,1.01847744,-117.802212,1.1,0.9,1.1,0.9
39979,'Will County',69.0,1,1,1,1,1.00406897,-120.545886,1.1,0.9,1.1,0.9
39980,'Joppa Steam',69.0,1,1,1,1,1.01906097,-79.953511,1.1,0.9,1.1,0.9
39981,'Kendall Co~1',138.0,1,1,1,1,1.01814246,-115.693173,1.1,0.9,1.1,0.9
39982,'Holland En~1',69.0,1,1,1,1,1.01920331,-93.085199,1.1,0.9,1.1,0.9
39983,'NRG Rockfo~2',69.0,1,1,1,1,1.01132798,-109.368889,1.1,0.9,1.1,0.9
39984,'NRG Rockfo~1',69.0,1,1,1,1,1.01138866,-109.360112,1.1,0.9,1.1,0.9
39985,'Calumet En~1',69.0,1,1,1,1,0.99774653,-124.845708,1.1,0.9,1.1,0.9
39986,'Camp Grove~1',69.0,1,1,1,1,1.01819098,-100.196123,1.1,0.9,1.1,0.9
39988,'E D Edwards',138.0,1,1,1,1,1.01824784,-97.091767,1.1,0.9,1.1,0.9
39989,'Gibson Cit~1',69.0,1,1,1,1,1.01954019,-106.966671,1.1,0.9,1.1,0.9
39990,'Kinmundy',69.0,1,1,1,1,1.01638556,-91.510492,1.1,0.9,1.1,0.9
39991,'Elgin Ener~1',69.0,1,1,1,1,1.01242959,-119.424778,1.1,0.9,1.1,0.9
39992,'Raccoon Cr~1',69.0,1,1,1,1,1.01826906,-91.392999,1.1,0.9,1.1,0.9
39993,'Goose Cree~1',69.0,1,1,1,1,1.01777351,-102.714488,1.1,0.9,1.1,0.9
39994,'Wood River',138.0,1,1,1,1,1.01533353,-102.38905,1.1,0.9,1.1,0.9
39995,'Blackstone~2',69.0,1,1,1,1,1.02059698,-110.758641,1.1,0.9,1.1,0.9
39996,'Lee Energy~1',69.0,1,1,1,1,0.99643481,-108.138301,1.1,0.9,1.1,0.9
39997,'EcoGrove W~1',69.0,1,1,1,1,1.01895094,-104.562826,1.1,0.9,1.1,0.9
39998,'Rail Split~1',69.0,1,1,1,1,1.01992595,-99.801044,1.1,0.9,1.1,0.9
39999,'Dallman',69.0,1,1,1,1,1.01707554,-97.774178,1.1,0.9,1.1,0.9
40000,'Crete Ener~1',69.0,1,1,1,1,1.01452398,-123.48243,1.1,0.9,1.1,0.9
40001,'Lincoln Ge~1',69.0,1,1,1,1,1.01658225,-119.070783,1.1,0.9,1.1,0.9
40003,'Granite Ci~1',69.0,2,1,1,1,0.99757963,-101.063468,1.1,0.9,1.1,0.9
40004,'Hennepin P~1',138.0,1,1,1,1,1.01828384,-109.711717,1.1,0.9,1.1,0.9
40005,'Vermilion',69.0,2,1,1,1,1.01999998,-103.25505,1.1,0.9,1.1,0.9
40006,'Moline',69.0,1,1,1,1,1.00296843,-102.149885,1.1,0.9,1.1,0.9
40008,'Freedom Po~1',69.0,2,1,1,1,1.01999998,-90.944351,1.1,0.9,1.1,0.9
40009,'Aurora',69.0,1,1,1,1,1.0097847,-120.526297,1.1,0.9,1.1,0.9
40011,'Tate & Lyl~1',69.0,1,1,1,1,1.01640773,-101.075591,1.1,0.9,1.1,0.9
40012,'Venice',69.0,1,1,1,1,0.99972707,-100.167333,1.1,0.9,1.1,0.9
40013,'Energy She~1',69.0,1,1,1,1,1.01813221,-96.31303,1.1,0.9,1.1,0.9
40014,'University~3',69.0,1,1,1,1,1.00446212,-123.080091,1.1,0.9,1.1,0.9
40015,'MEPI GT Fa~1',69.0,2,1,1,1,1.01999998,-78.762313,1.1,0.9,1.1,0.9
40017,'Southeast ~1',69.0,1,1,1,1,1.00438583,-124.991656,1.1,0.9,1.1,0.9
40018,'Mendota Hi~1',69.0,1,1,1,1,1.00199831,-115.285315,1.1,0.9,1.1,0.9
40019,'Grand Ridg~1',69.0,1,1,1,1,1.01684916,-112.522223,1.1,0.9,1.1,0.9
40021,'Tilton',69.0,1,1,1,1,1.0154165,-103.719264,1.1,0.9,1.1,0.9
40022,'Pinckneyvi~1',69.0,1,1,1,1,1.02018034,-84.257111,1.1,0.9,1.1,0.9
40023,'Rocky Road~1',69.0,1,1,1,1,1.01996624,-117.661224,1.1,0.9,1.1,0.9
40024,'ExxonMobil~1',69.0,1,1,1,1,1.00890541,-117.092569,1.1,0.9,1.1,0.9
40025,'Morris Cog~1',69.0,1,1,1,1,1.01186359,-116.917635,1.1,0.9,1.1,0.9
40026,'Princeton ~1',138.0,1,1,1,1,1.00879622,-110.837837,1.1,0.9,1.1,0.9
40027,'Marion',69.0,1,1,1,1,1.01734996,-86.717926,1.1,0.9,1.1,0.9
40028,'Archer Dan~2',69.0,1,1,1,1,1.01674867,-101.631801,1.1,0.9,1.1,0.9
40029,'Rantoul',69.0,1,1,1,1,0.98822564,-108.611168,1.1,0.9,1.1,0.9
40030,'Peru (IL)',69.0,1,1,1,1,0.99454093,-109.862999,1.1,0.9,1.1,0.9
40034,'University~1',69.0,1,1,1,1,0.98203075,-107.511296,1.1,0.9,1.1,0.9
40036,'Stallings',69.0,1,1,1,1,0.98016071,-102.416583,1.1,0.9,1.1,0.9
40037,'University~2',69.0,1,1,1,1,0.98912042,-124.547243,1.1,0.9,1.1,0.9
40040,'Alsey',69.0,1,1,1,1,1.0,-113.379317,1.1,0.9,1.1,0.9
40041,'Sherburne ~1',69.0,1,1,1,1,1.01981366,-93.426312,1.1,0.9,1.1,0.9
40042,'Allen S King',69.0,1,1,1,1,1.01694167,-96.458015,1.1,0.9,1.1,0.9
40043,'Prairie Is~1',69.0,1,1,1,1,1.01835227,-94.355457,1.1,0.9,1.1,0.9
40044,'Faribault ~1',69.0,1,1,1,1,0.97727633,-99.689814,1.1,0.9,1.1,0.9
40045,'Mankato En~1',69.0,1,1,1,1,1.01852334,-92.667458,1.1,0.9,1.1,0.9
40046,'Fenton Win~1',69.0,1,1,1,1,1.02798998,-84.473553,1.1,0.9,1.1,0.9
40047,'Cannon Fal~1',69.0,1,1,1,1,1.01428068,-97.343228,1.1,0.9,1.1,0.9
40048,'Nobles Win~1',69.0,1,1,1,1,1.01851225,-89.884197,1.1,0.9,1.1,0.9
40049,'High Bridge',69.0,1,1,1,1,1.01024497,-96.732684,1.1,0.9,1.1,0.9
40050,'Black Dog',69.0,1,1,1,1,1.01702428,-97.480221,1.1,0.9,1.1,0.9
40051,'LSP-Cottag~1',69.0,1,1,1,1,1.01602173,-96.133157,1.1,0.9,1.1,0.9
40052,'Elm Creek ~1',230.0,1,1,1,1,1.01980162,-87.66431,1.1,0.9,1.1,0.9
40054,'Lake Bento~1',69.0,1,1,1,1,1.02424777,-83.637531,1.1,0.9,1.1,0.9
40055,'Fox Lake',69.0,1,1,1,1,1.01175702,-89.615873,1.1,0.9,1.1,0.9
40056,'Lake Bento~2',69.0,2,1,1,1,1.0200001,-83.378831,1.1,0.9,1.1,0.9
40057,'Trimont Ar~1',69.0,1,1,1,1,1.01971376,-87.728889,1.1,0.9,1.1,0.9
40061,'Elm Creek ~2',69.0,1,1,1,1,1.0201776,-87.567636,1.1,0.9,1.1,0.9
40062,'Mower Coun~1',69.0,1,1,1,1,1.01953292,-90.733394,1.1,0.9,1.1,0.9
40063,'Lakefield ~1',69.0,1,1,1,1,1.01925015,-87.875424,1.1,0.9,1.1,0.9
40064,'Chanarambi~1',69.0,1,1,1,1,1.04739821,-85.837911,1.1,0.9,1.1,0.9
40065,'Taconite H~1',69.0,1,1,1,1,1.022313,-94.575464,1.1,0.9,1.1,0.9
40070,'Hutchinson~1',69.0,2,1,1,1,1.0200001,-97.168737,1.1,0.9,1.1,0.9
40071,'Benson Pow~1',69.0,1,1,1,1,1.04512274,-92.574717,1.1,0.9,1.1,0.9
40074,'Blue Lake',69.0,1,1,1,1,1.01412094,-97.406065,1.1,0.9,1.1,0.9
40076,'Moraine Wi~1',69.0,1,1,1,1,1.03679633,-84.920261,1.1,0.9,1.1,0.9
40079,'Jeffers Wi~1',138.0,1,1,1,1,1.02373791,-91.472106,1.1,0.9,1.1,0.9
40081,'Minnesota ~1',69.0,2,1,1,1,1.00987673,-99.366077,1.1,0.9,1.1,0.9
40086,'M L Hibbard',69.0,1,1,1,1,0.9968549,-105.371623,1.1,0.9,1.1,0.9
40091,'Montgomery',69.0,1,1,1,1,1.00530541,-96.895652,1.1,0.9,1.1,0.9
40092,'Sappi Cloq~1',69.0,1,1,1,1,0.99677813,-105.099215,1.1,0.9,1.1,0.9
40097,'Wilmarth',69.0,1,1,1,1,1.01884353,-92.623055,1.1,0.9,1.1,0.9
40098,'Cambridge CT',138.0,1,1,1,1,1.02433515,-97.712181,1.1,0.9,1.1,0.9
40099,'Rock Lake CT',138.0,1,1,1,1,1.01925361,-99.481323,1.1,0.9,1.1,0.9
40101,'Adams Wind~1',69.0,1,1,1,1,1.01882422,-89.930751,1.1,0.9,1.1,0.9
40102,'Koda Bioma~1',69.0,1,1,1,1,1.00501478,-99.662944,1.1,0.9,1.1,0.9
40108,'Grant Coun~1',69.0,1,1,1,1,1.03431427,-92.689178,1.1,0.9,1.1,0.9
40109,'Elm Road G~1',69.0,1,1,1,1,1.00954676,-115.611293,1.1,0.9,1.1,0.9
40110,'Point Beac~1',69.0,1,1,1,1,1.01916337,-101.948722,1.1,0.9,1.1,0.9
40111,'Pleasant P~1',69.0,1,1,1,1,1.00133896,-115.911507,1.1,0.9,1.1,0.9
40112,'John P Mad~1',69.0,1,1,1,1,1.01999235,-95.651998,1.1,0.9,1.1,0.9
40113,'Genoa',69.0,1,1,1,1,1.02048576,-96.020138,1.1,0.9,1.1,0.9
40114,'South Oak ~1',230.0,1,1,1,1,1.0155524,-114.559628,1.1,0.9,1.1,0.9
40115,'Riverside ~1',69.0,1,1,1,1,1.0168879,-111.822266,1.1,0.9,1.1,0.9
40116,'Fox Energy~1',69.0,1,1,1,1,1.01712883,-106.89257,1.1,0.9,1.1,0.9
40118,'RockGen En~1',69.0,1,1,1,1,0.97952443,-115.191127,1.1,0.9,1.1,0.9
40119,'Alliant En~1',69.0,1,1,1,1,1.00253987,-107.846201,1.1,0.9,1.1,0.9
40120,'Alma',69.0,1,1,1,1,1.02078116,-95.52415,1.1,0.9,1.1,0.9
40121,'LSP-Whitew~1',69.0,1,1,1,1,1.01198411,-111.589636,1.1,0.9,1.1,0.9
40122,'Sheboygan ~1',69.0,1,1,1,1,1.01623023,-106.718864,1.1,0.9,1.1,0.9
40123,'Port Washi~1',69.0,1,1,1,1,1.00398397,-111.634859,1.1,0.9,1.1,0.9
40125,'Valley (WI)',69.0,1,1,1,1,1.00403237,-117.259977,1.1,0.9,1.1,0.9
40126,'Green Bay ~1',69.0,1,1,1,1,1.00451827,-105.613023,1.1,0.9,1.1,0.9
40127,'Nelson Dew~1',69.0,1,1,1,1,1.01992774,-94.925143,1.1,0.9,1.1,0.9
40128,'Concord',69.0,1,1,1,1,1.01877177,-109.930276,1.1,0.9,1.1,0.9
40129,'South Fond~1',69.0,1,1,1,1,1.01981401,-109.431057,1.1,0.9,1.1,0.9
40130,'Paris (WI)',69.0,1,1,1,1,1.01906943,-116.349923,1.1,0.9,1.1,0.9
40131,'Germantown',69.0,1,1,1,1,1.01476192,-115.679649,1.1,0.9,1.1,0.9
40132,'West Marin~2',69.0,1,1,1,1,1.01948154,-96.280956,1.1,0.9,1.1,0.9
40133,'Edgewater',69.0,1,1,1,1,1.0200119,-105.65539,1.1,0.9,1.1,0.9
40135,'Combined L~1',69.0,1,1,1,1,1.0177815,-107.536944,1.1,0.9,1.1,0.9
40137,'Biron Mill',69.0,1,1,1,1,1.00321543,-110.437882,1.1,0.9,1.1,0.9
40138,'Island Str~1',69.0,1,1,1,1,1.0188936,-107.363853,1.1,0.9,1.1,0.9
40139,'Weston',138.0,1,1,1,1,1.0011946,-105.346782,1.1,0.9,1.1,0.9
40141,'Butler Ridge',69.0,1,1,1,1,1.00446606,-112.266809,1.1,0.9,1.1,0.9
40144,'West Marin~1',69.0,1,1,1,1,1.01957607,-96.268347,1.1,0.9,1.1,0.9
40145,'Sheepskin',69.0,2,1,1,1,1.0200001,-113.621747,1.1,0.9,1.1,0.9
40147,'Rock River',69.0,1,1,1,1,1.01721251,-111.959798,1.1,0.9,1.1,0.9
40150,'MMSD Jones~1',69.0,1,1,1,1,0.999062,-117.738309,1.1,0.9,1.1,0.9
40158,'Forward Wi~1',138.0,1,1,1,1,1.01654792,-109.840848,1.1,0.9,1.1,0.9
40162,'Custer Ene~1',69.0,1,1,1,1,1.01646364,-103.307151,1.1,0.9,1.1,0.9
40172,'17001000100',69.0,1,1,1,1,1.01284337,-99.018885,1.1,0.9,1.1,0.9
40179,'17001000800',69.0,1,1,1,1,1.00966716,-99.559494,1.1,0.9,1.1,0.9
40180,'17001000900',69.0,1,1,1,1,1.01017427,-99.544748,1.1,0.9,1.1,0.9
40181,'17001001001',69.0,1,1,1,1,1.01106691,-99.504784,1.1,0.9,1.1,0.9
40183,'17001001100',69.0,1,1,1,1,1.01251137,-99.392988,1.1,0.9,1.1,0.9
40186,'17001010300',69.0,1,1,1,1,0.97198528,-125.985858,1.1,0.9,1.1,0.9
40189,'17001010600',69.0,1,1,1,1,1.01934242,-99.157422,1.1,0.9,1.1,0.9
40197,'17005951500',138.0,1,1,1,1,1.01164818,-92.504961,1.1,0.9,1.1,0.9
40198,'17007010100',69.0,1,1,1,1,1.00799501,-110.461002,1.1,0.9,1.1,0.9
40201,'17007010400',69.0,1,1,1,1,1.00416672,-112.783622,1.1,0.9,1.1,0.9
...
0 / END OF BUS DATA BEGIN LOAD DATA
40024,'G',1,1,1,-12.0,-8.0,0.0,0.0,0.0,0.0,1,1,0
40111,'1',1,1,1,241.2,49.8,0.0,0.0,0.0,0.0,1,1,0
40172,'1',1,1,1,41.604,9.288,0.0,0.0,0.0,0.0,1,1,0
40179,'1',1,1,1,16.596,2.365,0.0,0.0,0.0,0.0,1,1,0
40180,'1',1,1,1,2.208,0.315,0.0,0.0,0.0,0.0,1,1,0
40181,'1',1,1,1,2.904,0.59,0.0,0.0,0.0,0.0,1,1,0
40183,'1',1,1,1,9.804,2.457,0.0,0.0,0.0,0.0,1,1,0
40186,'1',1,1,1,111.724,31.671,0.0,0.0,0.0,0.0,1,1,0
40189,'1',1,1,1,32.124,8.184,0.0,0.0,0.0,0.0,1,1,0
40197,'1',1,1,1,15.81,3.21,0.0,0.0,0.0,0.0,1,1,0
40198,'1',1,1,1,21.63,6.23,0.0,0.0,0.0,0.0,1,1,0
40201,'1',1,1,1,34.85,7.077,0.0,0.0,0.0,0.0,1,1,0
40207,'1',1,1,1,20.54,5.148,0.0,0.0,0.0,0.0,1,1,0
40209,'1',1,1,1,13.95,1.988,0.0,0.0,0.0,0.0,1,1,0
40210,'1',1,1,1,12.4,2.518,0.0,0.0,0.0,0.0,1,1,0
40211,'1',1,1,1,7.47,2.03,0.0,0.0,0.0,0.0,1,1,0
40212,'1',1,1,1,12.43,2.524,0.0,0.0,0.0,0.0,1,1,0
40213,'1',1,1,1,13.71,4.13,0.0,0.0,0.0,0.0,1,1,0
40214,'1',1,1,1,7.36,1.845,0.0,0.0,0.0,0.0,1,1,0
40216,'1',1,1,1,28.52,5.791,0.0,0.0,0.0,0.0,1,1,0
40219,'1',1,1,1,21.16,6.87,0.0,0.0,0.0,0.0,1,1,0
40222,'1',1,1,1,6.15,0.876,0.0,0.0,0.0,0.0,1,1,0
40224,'1',1,1,1,10.2,-16.11,0.0,0.0,0.0,0.0,1,1,0
40226,'1',1,1,1,80.88,20.27,0.0,0.0,0.0,0.0,1,1,0
40227,'1',1,1,1,31.428,9.684,0.0,0.0,0.0,0.0,1,1,0
40230,'1',1,1,1,4.56,1.43,0.0,0.0,0.0,0.0,1,1,0
40233,'1',1,1,1,6.24,1.267,0.0,0.0,0.0,0.0,1,1,0
40234,'1',1,1,1,2.81,0.571,0.0,0.0,0.0,0.0,1,1,0
40235,'1',1,1,1,3.96,0.804,0.0,0.0,0.0,0.0,1,1,0
40236,'1',1,1,1,4.6,0.655,0.0,0.0,0.0,0.0,1,1,0
40237,'1',1,1,1,19.8,4.962,0.0,0.0,0.0,0.0,1,1,0
40238,'1',1,1,1,139.02,40.26,0.0,0.0,0.0,0.0,1,1,0
40239,'1',1,1,1,15.45,2.202,0.0,0.0,0.0,0.0,1,1,0
40240,'1',1,1,1,7.42,1.057,0.0,0.0,0.0,0.0,1,1,0
40241,'1',1,1,1,2.58,0.524,0.0,0.0,0.0,0.0,1,1,0
40243,'1',1,1,1,3.29,0.469,0.0,0.0,0.0,0.0,1,1,0
40244,'1',1,1,1,3.53,0.717,0.0,0.0,0.0,0.0,1,1,0
40247,'1',1,1,1,5.4,1.353,0.0,0.0,0.0,0.0,1,1,0
40250,'1',1,1,1,198.66,40.34,0.0,0.0,0.0,0.0,1,1,0
40258,'1',1,1,1,8.95,1.275,0.0,0.0,0.0,0.0,1,1,0
40260,'1',1,1,1,4.43,0.9,0.0,0.0,0.0,0.0,1,1,0
40262,'1',1,1,1,10.72,2.177,0.0,0.0,0.0,0.0,1,1,0
40263,'1',1,1,1,37.59,10.59,0.0,0.0,0.0,0.0,1,1,0
40264,'1',1,1,1,19.16,3.891,0.0,0.0,0.0,0.0,1,1,0
40265,'1',1,1,1,10.36,2.104,0.0,0.0,0.0,0.0,1,1,0
40266,'1',1,1,1,9.71,2.84,0.0,0.0,0.0,0.0,1,1,0
40267,'1',1,1,1,34.0,9.73,0.0,0.0,0.0,0.0,1,1,0
40269,'1',1,1,1,19.91,4.043,0.0,0.0,0.0,0.0,1,1,0
40270,'1',1,1,1,27.67,6.935,0.0,0.0,0.0,0.0,1,1,0
40271,'1',1,1,1,7.02,2.27,0.0,0.0,0.0,0.0,1,1,0
40273,'1',1,1,1,11.58,2.351,0.0,0.0,0.0,0.0,1,1,0
40274,'1',1,1,1,11.85,2.97,0.0,0.0,0.0,0.0,1,1,0
40275,'1',1,1,1,20.27,2.888,0.0,0.0,0.0,0.0,1,1,0
40277,'1',1,1,1,4.5,0.641,0.0,0.0,0.0,0.0,1,1,0
40278,'1',1,1,1,10.54,1.502,0.0,0.0,0.0,0.0,1,1,0
40279,'1',1,1,1,19.06,2.716,0.0,0.0,0.0,0.0,1,1,0
40283,'1',1,1,1,14.04,2.001,0.0,0.0,0.0,0.0,1,1,0
40284,'1',1,1,1,12.74,1.815,0.0,0.0,0.0,0.0,1,1,0
40285,'1',1,1,1,30.04,4.28,0.0,0.0,0.0,0.0,1,1,0
40286,'1',1,1,1,6.37,1.293,0.0,0.0,0.0,0.0,1,1,0
40287,'1',1,1,1,3.37,0.845,0.0,0.0,0.0,0.0,1,1,0
40288,'1',1,1,1,11.83,2.402,0.0,0.0,0.0,0.0,1,1,0
40289,'1',1,1,1,27.65,6.93,0.0,0.0,0.0,0.0,1,1,0
40290,'1',1,1,1,12.82,3.213,0.0,0.0,0.0,0.0,1,1,0
40293,'1',1,1,1,24.62,3.508,0.0,0.0,0.0,0.0,1,1,0
40294,'1',1,1,1,7.4,1.855,0.0,0.0,0.0,0.0,1,1,0
40295,'1',1,1,1,15.57,4.8,0.0,0.0,0.0,0.0,1,1,0
40296,'1',1,1,1,23.94,4.861,0.0,0.0,0.0,0.0,1,1,0
40299,'1',1,1,1,21.05,6.63,0.0,0.0,0.0,0.0,1,1,0
40300,'1',1,1,1,22.56,3.215,0.0,0.0,0.0,0.0,1,1,0
40301,'1',1,1,1,8.78,2.2,0.0,0.0,0.0,0.0,1,1,0
40302,'1',1,1,1,22.37,5.97,0.0,0.0,0.0,0.0,1,1,0
40303,'1',1,1,1,28.86,7.233,0.0,0.0,0.0,0.0,1,1,0
40309,'1',1,1,1,9.92,2.014,0.0,0.0,0.0,0.0,1,1,0
40310,'1',1,1,1,7.72,1.935,0.0,0.0,0.0,0.0,1,1,0
40353,'1',1,1,1,7.59,1.902,0.0,0.0,0.0,0.0,1,1,0
40380,'1',1,1,1,1.55,0.388,0.0,0.0,0.0,0.0,1,1,0
40382,'1',1,1,1,2.55,0.639,0.0,0.0,0.0,0.0,1,1,0
40384,'1',1,1,1,1.29,0.262,0.0,0.0,0.0,0.0,1,1,0
40385,'1',1,1,1,2.34,0.586,0.0,0.0,0.0,0.0,1,1,0
40386,'1',1,1,1,5.78,0.824,0.0,0.0,0.0,0.0,1,1,0
40387,'1',1,1,1,1.84,0.461,0.0,0.0,0.0,0.0,1,1,0
40388,'1',1,1,1,7.95,2.55,0.0,0.0,0.0,0.0,1,1,0
40391,'1',1,1,1,1.78,0.361,0.0,0.0,0.0,0.0,1,1,0
40396,'1',1,1,1,2.4,0.601,0.0,0.0,0.0,0.0,1,1,0
40397,'1',1,1,1,1.53,0.311,0.0,0.0,0.0,0.0,1,1,0
40404,'1',1,1,1,3.13,0.784,0.0,0.0,0.0,0.0,1,1,0
40407,'1',1,1,1,3.74,0.533,0.0,0.0,0.0,0.0,1,1,0
40408,'1',1,1,1,3.42,0.857,0.0,0.0,0.0,0.0,1,1,0
40424,'1',1,1,1,4.45,1.115,0.0,0.0,0.0,0.0,1,1,0
40425,'1',1,1,1,2.81,0.704,0.0,0.0,0.0,0.0,1,1,0
40426,'1',1,1,1,11.03,2.24,0.0,0.0,0.0,0.0,1,1,0
40441,'1',1,1,1,8.23,1.173,0.0,0.0,0.0,0.0,1,1,0
40442,'1',1,1,1,2.81,0.704,0.0,0.0,0.0,0.0,1,1,0
40443,'1',1,1,1,6.83,1.387,0.0,0.0,0.0,0.0,1,1,0
40445,'1',1,1,1,9.15,2.293,0.0,0.0,0.0,0.0,1,1,0
40446,'1',1,1,1,14.05,3.521,0.0,0.0,0.0,0.0,1,1,0
40449,'1',1,1,1,10.63,2.159,0.0,0.0,0.0,0.0,1,1,0
40450,'1',1,1,1,4.63,1.16,0.0,0.0,0.0,0.0,1,1,0
40451,'1',1,1,1,3.06,0.767,0.0,0.0,0.0,0.0,1,1,0
40452,'1',1,1,1,15.44,2.2,0.0,0.0,0.0,0.0,1,1,0
40455,'1',1,1,1,10.45,2.619,0.0,0.0,0.0,0.0,1,1,0
40457,'1',1,1,1,5.22,0.744,0.0,0.0,0.0,0.0,1,1,0
40458,'1',1,1,1,8.33,2.088,0.0,0.0,0.0,0.0,1,1,0
40464,'1',1,1,1,10.61,2.659,0.0,0.0,0.0,0.0,1,1,0
40465,'1',1,1,1,6.58,2.04,0.0,0.0,0.0,0.0,1,1,0
40468,'1',1,1,1,3.74,0.759,0.0,0.0,0.0,0.0,1,1,0
40471,'1',1,1,1,5.79,1.451,0.0,0.0,0.0,0.0,1,1,0
40473,'1',1,1,1,3.77,0.537,0.0,0.0,0.0,0.0,1,1,0
40474,'1',1,1,1,6.34,0.903,0.0,0.0,0.0,0.0,1,1,0
40475,'1',1,1,1,10.49,3.22,0.0,0.0,0.0,0.0,1,1,0
40476,'1',1,1,1,5.19,1.301,0.0,0.0,0.0,0.0,1,1,0
40481,'1',1,1,1,7.91,1.606,0.0,0.0,0.0,0.0,1,1,0
40488,'1',1,1,1,8.75,1.247,0.0,0.0,0.0,0.0,1,1,0
40543,'1',1,1,1,11.56,2.76,0.0,0.0,0.0,0.0,1,1,0
40545,'1',1,1,1,13.41,3.49,0.0,0.0,0.0,0.0,1,1,0
40625,'1',1,1,1,11.67,2.37,0.0,0.0,0.0,0.0,1,1,0
40640,'1',1,1,1,0.98,0.14,0.0,0.0,0.0,0.0,1,1,0
40641,'1',1,1,1,4.61,0.936,0.0,0.0,0.0,0.0,1,1,0
40646,'1',1,1,1,1.75,0.249,0.0,0.0,0.0,0.0,1,1,0
40647,'1',1,1,1,4.78,1.4,0.0,0.0,0.0,0.0,1,1,0
40649,'1',1,1,1,2.19,0.445,0.0,0.0,0.0,0.0,1,1,0
40653,'1',1,1,1,3.13,0.784,0.0,0.0,0.0,0.0,1,1,0
40660,'1',1,1,1,7.41,1.505,0.0,0.0,0.0,0.0,1,1,0
40664,'1',1,1,1,10.74,2.692,0.0,0.0,0.0,0.0,1,1,0
40669,'1',1,1,1,4.47,1.12,0.0,0.0,0.0,0.0,1,1,0
40670,'1',1,1,1,6.54,2.14,0.0,0.0,0.0,0.0,1,1,0
40671,'1',1,1,1,1.6,0.325,0.0,0.0,0.0,0.0,1,1,0
40672,'1',1,1,1,0.86,0.123,0.0,0.0,0.0,0.0,1,1,0
40673,'1',1,1,1,2.12,0.531,0.0,0.0,0.0,0.0,1,1,0
40675,'1',1,1,1,19.35,6.05,0.0,0.0,0.0,0.0,1,1,0
40677,'1',1,1,1,2.3,0.328,0.0,0.0,0.0,0.0,1,1,0
40678,'1',1,1,1,3.71,0.93,0.0,0.0,0.0,0.0,1,1,0
40679,'1',1,1,1,4.24,0.604,0.0,0.0,0.0,0.0,1,1,0
40682,'1',1,1,1,5.54,1.125,0.0,0.0,0.0,0.0,1,1,0
40684,'1',1,1,1,3.34,0.476,0.0,0.0,0.0,0.0,1,1,0
40686,'1',1,1,1,4.44,1.113,0.0,0.0,0.0,0.0,1,1,0
40687,'1',1,1,1,3.77,0.945,0.0,0.0,0.0,0.0,1,1,0
40688,'1',1,1,1,3.83,0.778,0.0,0.0,0.0,0.0,1,1,0
40690,'1',1,1,1,4.2,1.37,0.0,0.0,0.0,0.0,1,1,0
40697,'1',1,1,1,23.27,3.316,0.0,0.0,0.0,0.0,1,1,0
40700,'1',1,1,1,29.47,4.199,0.0,0.0,0.0,0.0,1,1,0
40701,'1',1,1,1,3.2,0.456,0.0,0.0,0.0,0.0,1,1,0
40716,'1',1,1,1,1.36,0.341,0.0,0.0,0.0,0.0,1,1,0
40719,'1',1,1,1,4.16,1.043,0.0,0.0,0.0,0.0,1,1,0
40722,'1',1,1,1,2.5,0.356,0.0,0.0,0.0,0.0,1,1,0
40731,'1',1,1,1,2.14,0.435,0.0,0.0,0.0,0.0,1,1,0
40733,'1',1,1,1,2.98,0.747,0.0,0.0,0.0,0.0,1,1,0
40767,'1',1,1,1,4.46,0.906,0.0,0.0,0.0,0.0,1,1,0
40769,'1',1,1,1,4.87,0.694,0.0,0.0,0.0,0.0,1,1,0
40771,'1',1,1,1,4.97,0.708,0.0,0.0,0.0,0.0,1,1,0
40775,'1',1,1,1,2.34,0.333,0.0,0.0,0.0,0.0,1,1,0
40776,'1',1,1,1,3.0,0.427,0.0,0.0,0.0,0.0,1,1,0
40778,'1',1,1,1,1.81,0.368,0.0,0.0,0.0,0.0,1,1,0
40779,'1',1,1,1,4.64,0.942,0.0,0.0,0.0,0.0,1,1,0
40780,'1',1,1,1,2.93,0.418,0.0,0.0,0.0,0.0,1,1,0
40781,'1',1,1,1,3.39,0.688,0.0,0.0,0.0,0.0,1,1,0
40782,'1',1,1,1,5.35,1.341,0.0,0.0,0.0,0.0,1,1,0
40783,'1',1,1,1,1.37,0.278,0.0,0.0,0.0,0.0,1,1,0
40784,'1',1,1,1,2.47,0.619,0.0,0.0,0.0,0.0,1,1,0
40785,'1',1,1,1,3.69,0.925,0.0,0.0,0.0,0.0,1,1,0
40786,'1',1,1,1,8.69,2.178,0.0,0.0,0.0,0.0,1,1,0
40788,'1',1,1,1,1.93,0.392,0.0,0.0,0.0,0.0,1,1,0
40789,'1',1,1,1,1.15,0.288,0.0,0.0,0.0,0.0,1,1,0
40791,'1',1,1,1,4.02,0.573,0.0,0.0,0.0,0.0,1,1,0
40792,'1',1,1,1,1.46,0.208,0.0,0.0,0.0,0.0,1,1,0
40793,'1',1,1,1,0.75,0.152,0.0,0.0,0.0,0.0,1,1,0
40797,'1',1,1,1,5.7,1.157,0.0,0.0,0.0,0.0,1,1,0
40798,'1',1,1,1,3.46,0.867,0.0,0.0,0.0,0.0,1,1,0
40799,'1',1,1,1,5.63,0.802,0.0,0.0,0.0,0.0,1,1,0
40800,'1',1,1,1,4.59,0.932,0.0,0.0,0.0,0.0,1,1,0
40801,'1',1,1,1,3.55,0.89,0.0,0.0,0.0,0.0,1,1,0
40802,'1',1,1,1,2.17,0.544,0.0,0.0,0.0,0.0,1,1,0
40803,'1',1,1,1,2.49,0.355,0.0,0.0,0.0,0.0,1,1,0
40804,'1',1,1,1,3.41,0.855,0.0,0.0,0.0,0.0,1,1,0
40805,'1',1,1,1,10.77,2.699,0.0,0.0,0.0,0.0,1,1,0
40806,'1',1,1,1,11.76,3.5,0.0,0.0,0.0,0.0,1,1,0
40808,'1',1,1,1,16.15,2.301,0.0,0.0,0.0,0.0,1,1,0
40810,'1',1,1,1,12.06,2.449,0.0,0.0,0.0,0.0,1,1,0
40812,'1',1,1,1,5.56,1.129,0.0,0.0,0.0,0.0,1,1,0
40813,'1',1,1,1,7.69,1.562,0.0,0.0,0.0,0.0,1,1,0
40815,'1',1,1,1,3.81,0.774,0.0,0.0,0.0,0.0,1,1,0
40816,'1',1,1,1,5.38,1.092,0.0,0.0,0.0,0.0,1,1,0
40818,'1',1,1,1,4.0,1.002,0.0,0.0,0.0,0.0,1,1,0
40819,'1',1,1,1,5.89,1.196,0.0,0.0,0.0,0.0,1,1,0
40820,'1',1,1,1,6.15,1.541,0.0,0.0,0.0,0.0,1,1,0
40821,'1',1,1,1,4.07,1.02,0.0,0.0,0.0,0.0,1,1,0
40822,'1',1,1,1,4.65,0.663,0.0,0.0,0.0,0.0,1,1,0
40823,'1',1,1,1,5.28,1.323,0.0,0.0,0.0,0.0,1,1,0
40824,'1',1,1,1,5.23,0.745,0.0,0.0,0.0,0.0,1,1,0
40825,'1',1,1,1,9.9,2.481,0.0,0.0,0.0,0.0,1,1,0
40826,'1',1,1,1,22.75,4.62,0.0,0.0,0.0,0.0,1,1,0
40827,'1',1,1,1,13.95,3.9,0.0,0.0,0.0,0.0,1,1,0
40829,'1',1,1,1,5.09,0.725,0.0,0.0,0.0,0.0,1,1,0
40830,'1',1,1,1,2.65,0.378,0.0,0.0,0.0,0.0,1,1,0
40833,'1',1,1,1,3.12,0.634,0.0,0.0,0.0,0.0,1,1,0
40834,'1',1,1,1,5.65,0.805,0.0,0.0,0.0,0.0,1,1,0
40836,'1',1,1,1,4.53,0.645,0.0,0.0,0.0,0.0,1,1,0
40837,'1',1,1,1,4.39,1.1,0.0,0.0,0.0,0.0,1,1,0
40838,'1',1,1,1,10.59,2.654,0.0,0.0,0.0,0.0,1,1,0
...
0 / END OF LOAD DATA BEGIN FIXED SHUNT DATA
0 / END OF FIXED SHUNT DATA BEGIN GENERATOR DATA
39880,'1',17.6,-3.737,96.9,-66.7,1.02,0,100.0,0.0,1.0,0.0,0.0,1.0,1,100.0,17.6,0.0,1,1.0,0,1.0,0,1.0,0,1.0,1,1.0
39896,'1',25.4,3.767,44.1,-44.1,1.02,0,100.0,0.0,1.0,0.0,0.0,1.0,1,100.0,25.4,0.0,1,1.0,0,1.0,0,1.0,0,1.0,1,1.0
39908,'1',52.4,4.545,38.2,-26.3,1.02,0,100.0,0.0,1.0,0.0,0.0,1.0,1,100.0,64.0,6.0,1,1.0,0,1.0,0,1.0,0,1.0,0,1.0
39908,'2',52.4,4.545,38.2,-26.3,1.02,0,100.0,0.0,1.0,0.0,0.0,1.0,1,100.0,64.0,6.0,1,1.0,0,1.0,0,1.0,0,1.0,0,1.0
40003,'1',51.6,25.6,25.6,-25.6,1.02,0,100.0,0.0,1.0,0.0,0.0,1.0,1,100.0,64.0,2.0,1,1.0,0,1.0,0,1.0,0,1.0,0,1.0
40005,'1',39.838,3.933,44.6,-24.5,1.02,0,100.0,0.0,1.0,0.0,0.0,1.0,1,100.0,61.0,25.73,1,1.0,0,1.0,0,1.0,0,1.0,0,1.0
40005,'2',38.08,3.933,66.0,-36.3,1.02,0,100.0,0.0,1.0,0.0,0.0,1.0,1,100.0,90.0,38.08,1,1.0,0,1.0,0,1.0,0,1.0,0,1.0
40008,'1',61.0,-2.292,34.4,-23.7,1.02,0,100.0,0.0,1.0,0.0,0.0,1.0,1,100.0,61.0,20.0,1,1.0,0,1.0,0,1.0,0,1.0,0,1.0
40015,'1',54.0,4.13,31.2,-21.5,1.02,0,100.0,0.0,1.0,0.0,0.0,1.0,1,100.0,54.0,16.0,1,1.0,0,1.0,0,1.0,0,1.0,0,1.0
40015,'2',54.0,4.13,31.2,-21.5,1.02,0,100.0,0.0,1.0,0.0,0.0,1.0,1,100.0,54.0,16.0,1,1.0,0,1.0,0,1.0,0,1.0,0,1.0
40015,'3',54.0,4.13,31.2,-21.5,1.02,0,100.0,0.0,1.0,0.0,0.0,1.0,1,100.0,54.0,16.0,1,1.0,0,1.0,0,1.0,0,1.0,0,1.0
40015,'4',46.0,4.13,40.5,-18.0,1.02,0,100.0,0.0,1.0,0.0,0.0,1.0,1,100.0,46.0,4.0,1,1.0,0,1.0,0,1.0,0,1.0,0,1.0
40015,'5',46.0,4.13,40.5,-18.0,1.02,0,100.0,0.0,1.0,0.0,0.0,1.0,1,100.0,46.0,4.0,1,1.0,0,1.0,0,1.0,0,1.0,0,1.0
40056,'1',40.9,-23.191,45.6,-45.6,1.02,0,100.0,0.0,1.0,0.0,0.0,1.0,1,100.0,40.9,0.0,1,1.0,0,1.0,0,1.0,0,1.0,1,1.0
40070,'2',29.5,11.797,49.1,-21.8,1.02,0,100.0,0.0,1.0,0.0,0.0,1.0,1,100.0,55.0,12.5,1,1.0,0,1.0,0,1.0,0,1.0,0,1.0
40070,'3',31.6,11.797,40.5,-18.0,1.02,0,100.0,0.0,1.0,0.0,0.0,1.0,1,100.0,46.0,10.0,1,1.0,0,1.0,0,1.0,0,1.0,0,1.0
40081,'1',40.0,36.8,36.8,-16.3,1.02,0,100.0,0.0,1.0,0.0,0.0,1.0,1,100.0,40.0,1.0,1,1.0,0,1.0,0,1.0,0,1.0,0,1.0
40145,'1',36.0,17.001,20.2,-13.9,1.02,0,100.0,0.0,1.0,0.0,0.0,1.0,1,100.0,36.0,10.0,1,1.0,0,1.0,0,1.0,0,1.0,0,1.0
75435,'1',600.0,-136.94,393.2,-270.6,1.02,0,100.0,0.0,1.0,0.0,0.0,1.0,1,100.0,600.0,275.0,1,1.0,0,1.0,0,1.0,0,1.0,0,1.0
75437,'1',386.195,-105.578,337.0,-232.0,1.02,0,100.0,0.0,1.0,0.0,0.0,1.0,1,100.0,562.0,250.0,1,1.0,0,1.0,0,1.0,0,1.0,0,1.0
75439,'1',561.0,-24.048,223.3,-223.3,1.02,0,100.0,0.0,1.0,0.0,0.0,1.0,1,100.0,561.0,60.0,1,1.0,0,1.0,0,1.0,0,1.0,0,1.0
75440,'1',99.8,-5.891,135.4,-72.8,1.02,0,100.0,0.0,1.0,0.0,0.0,1.0,1,100.0,182.0,45.0,1,1.0,0,1.0,0,1.0,0,1.0,0,1.0
75442,'1',64.5,-15.807,96.7,-66.6,1.02,0,100.0,0.0,1.0,0.0,0.0,1.0,1,100.0,64.5,0.0,1,1.0,0,1.0,0,1.0,0,1.0,1,1.0
75444,'1',120.0,-14.898,118.0,-63.5,1.02,0,100.0,0.0,1.0,0.0,0.0,1.0,1,100.0,160.0,120.0,1,1.0,0,1.0,0,1.0,0,1.0,0,1.0
75444,'2',120.0,-14.898,118.0,-63.5,1.02,0,100.0,0.0,1.0,0.0,0.0,1.0,1,100.0,159.0,120.0,1,1.0,0,1.0,0,1.0,0,1.0,0,1.0
75444,'3',55.0,-14.898,121.2,-65.2,1.02,0,100.0,0.0,1.0,0.0,0.0,1.0,1,100.0,164.0,55.0,1,1.0,0,1.0,0,1.0,0,1.0,0,1.0
75446,'1',22.21,5.233,84.7,-58.3,1.02,0,100.0,0.0,1.0,0.0,0.0,1.0,1,100.0,22.21,0.0,1,1.0,0,1.0,0,1.0,0,1.0,1,1.0
75448,'1',137.4,9.013,107.5,-57.8,1.02,0,100.0,0.0,1.0,0.0,0.0,1.0,1,100.0,148.0,95.0,1,1.0,0,1.0,0,1.0,0,1.0,0,1.0
75448,'2',137.4,9.013,107.5,-57.8,1.02,0,100.0,0.0,1.0,0.0,0.0,1.0,1,100.0,148.0,95.0,1,1.0,0,1.0,0,1.0,0,1.0,0,1.0
75448,'3',116.6,9.013,158.7,-85.3,1.02,0,100.0,0.0,1.0,0.0,0.0,1.0,1,100.0,197.0,63.0,1,1.0,0,1.0,0,1.0,0,1.0,0,1.0
75450,'1',84.3,-57.703,67.5,-67.5,1.02,0,100.0,0.0,1.0,0.0,0.0,1.0,1,100.0,84.3,0.0,1,1.0,0,1.0,0,1.0,0,1.0,1,1.0
75451,'1',27.5,12.415,66.1,-66.1,1.02,0,100.0,0.0,1.0,0.0,0.0,1.0,1,100.0,27.5,0.0,1,1.0,0,1.0,0,1.0,0,1.0,1,1.0
75454,'1',0.34,-20.077,66.1,-66.1,1.02,0,100.0,0.0,1.0,0.0,0.0,1.0,1,100.0,0.34,0.0,1,1.0,0,1.0,0,1.0,0,1.0,1,1.0
75457,'1',7.04,-36.023,66.1,-66.1,1.02,0,100.0,0.0,1.0,0.0,0.0,1.0,1,100.0,7.04,0.0,1,1.0,0,1.0,0,1.0,0,1.0,1,1.0
75458,'1',84.5,7.174,66.1,-66.1,1.02,0,100.0,0.0,1.0,0.0,0.0,1.0,1,100.0,84.5,0.0,1,1.0,0,1.0,0,1.0,0,1.0,1,1.0
75459,'1',116.0,-34.164,91.1,-49.0,1.02,0,100.0,0.0,1.0,0.0,0.0,1.0,1,100.0,116.0,65.0,1,1.0,0,1.0,0,1.0,0,1.0,0,1.0
75459,'2',278.0,-34.164,169.1,-116.4,1.02,0,100.0,0.0,1.0,0.0,0.0,1.0,1,100.0,278.0,90.0,1,1.0,0,1.0,0,1.0,0,1.0,0,1.0
75459,'3',375.0,-34.164,282.9,-194.7,1.02,0,100.0,0.0,1.0,0.0,0.0,1.0,1,100.0,375.0,250.0,1,1.0,0,1.0,0,1.0,0,1.0,0,1.0
75461,'1',30.0,82.77,84.3,-45.3,1.02,0,100.0,0.0,1.0,0.0,0.0,1.0,1,100.0,115.0,30.0,1,1.0,0,1.0,0,1.0,0,1.0,0,1.0
75465,'1',56.25,-1.979,49.6,-49.6,1.02,0,100.0,0.0,1.0,0.0,0.0,1.0,1,100.0,56.25,0.0,1,1.0,0,1.0,0,1.0,0,1.0,1,1.0
75466,'2',76.7,6.186,44.1,-44.1,1.02,0,100.0,0.0,1.0,0.0,0.0,1.0,1,100.0,76.7,0.0,1,1.0,0,1.0,0,1.0,0,1.0,1,1.0
75467,'1',66.6,-8.798,43.7,-43.7,1.02,0,100.0,0.0,1.0,0.0,0.0,1.0,1,100.0,66.6,0.0,1,1.0,0,1.0,0,1.0,0,1.0,1,1.0
75468,'1',77.22,-32.562,47.9,-33.0,1.02,0,100.0,0.0,1.0,0.0,0.0,1.0,1,100.0,77.22,0.0,1,1.0,0,1.0,0,1.0,0,1.0,1,1.0
75470,'1',88.9,-43.2,43.2,-43.2,1.02,0,100.0,0.0,1.0,0.0,0.0,1.0,1,100.0,88.9,0.0,1,1.0,0,1.0,0,1.0,0,1.0,1,1.0
75482,'1',33.6,-1.94,65.1,-35.0,1.02,0,100.0,0.0,1.0,0.0,0.0,1.0,1,100.0,88.0,20.0,1,1.0,0,1.0,0,1.0,0,1.0,0,1.0
75482,'2',38.4,-1.94,46.5,-25.0,1.02,0,100.0,0.0,1.0,0.0,0.0,1.0,1,100.0,64.0,0.0,1,1.0,0,1.0,0,1.0,0,1.0,0,1.0
75484,'1',28.0,31.961,34.5,-23.7,1.02,0,100.0,0.0,1.0,0.0,0.0,1.0,1,100.0,61.0,6.0,1,1.0,0,1.0,0,1.0,0,1.0,0,1.0
75484,'2',19.6,31.961,43.1,-29.7,1.02,0,100.0,0.0,1.0,0.0,0.0,1.0,1,100.0,74.0,6.0,1,1.0,0,1.0,0,1.0,0,1.0,0,1.0
75484,'3',22.2,31.961,50.3,-34.6,1.02,0,100.0,0.0,1.0,0.0,0.0,1.0,1,100.0,87.0,6.0,1,1.0,0,1.0,0,1.0,0,1.0,0,1.0
75486,'1',52.0,-12.011,37.5,-20.2,1.02,0,100.0,0.0,1.0,0.0,0.0,1.0,1,100.0,52.0,30.0,1,1.0,0,1.0,0,1.0,0,1.0,0,1.0
75486,'2',52.0,-12.011,37.5,-20.2,1.02,0,100.0,0.0,1.0,0.0,0.0,1.0,1,100.0,52.0,30.0,1,1.0,0,1.0,0,1.0,0,1.0,0,1.0
75486,'3',51.0,-12.011,37.5,-20.2,1.02,0,100.0,0.0,1.0,0.0,0.0,1.0,1,100.0,51.0,30.0,1,1.0,0,1.0,0,1.0,0,1.0,0,1.0
75488,'3',23.45,5.62,54.2,-54.2,1.02,0,100.0,0.0,1.0,0.0,0.0,1.0,1,100.0,23.45,0.0,1,1.0,0,1.0,0,1.0,0,1.0,1,1.0
75493,'1',40.0,-16.3,30.4,-16.3,1.02,0,100.0,0.0,1.0,0.0,0.0,1.0,1,100.0,40.0,25.0,1,1.0,0,1.0,0,1.0,0,1.0,0,1.0
75493,'2',67.0,-27.2,50.6,-27.2,1.02,0,100.0,0.0,1.0,0.0,0.0,1.0,1,100.0,67.0,40.0,1,1.0,0,1.0,0,1.0,0,1.0,0,1.0
75493,'3',645.0,-126.47,446.8,-307.5,1.02,0,100.0,0.0,1.0,0.0,0.0,1.0,1,100.0,645.0,365.0,1,1.0,0,1.0,0,1.0,0,1.0,0,1.0
75493,'4',600.0,-126.47,351.5,-241.9,1.02,0,100.0,0.0,1.0,0.0,0.0,1.0,1,100.0,600.0,350.0,1,1.0,0,1.0,0,1.0,0,1.0,0,1.0
75497,'1',34.0,-11.699,20.1,-13.8,1.02,0,100.0,0.0,1.0,0.0,0.0,1.0,1,100.0,34.0,6.0,1,1.0,0,1.0,0,1.0,0,1.0,0,1.0
75497,'2',34.0,-11.699,20.1,-13.8,1.02,0,100.0,0.0,1.0,0.0,0.0,1.0,1,100.0,34.0,6.0,1,1.0,0,1.0,0,1.0,0,1.0,0,1.0
75497,'3',21.2,-11.699,47.0,-32.3,1.02,0,100.0,0.0,1.0,0.0,0.0,1.0,1,100.0,82.0,6.0,1,1.0,0,1.0,0,1.0,0,1.0,0,1.0
75500,'1',32.0,-12.5,23.2,-12.5,1.02,0,100.0,0.0,1.0,0.0,0.0,1.0,1,100.0,32.0,13.12,1,1.0,0,1.0,0,1.0,0,1.0,0,1.0
75500,'2',218.0,-18.832,132.9,-91.5,1.02,0,100.0,0.0,1.0,0.0,0.0,1.0,1,100.0,218.0,96.9,1,1.0,0,1.0,0,1.0,0,1.0,0,1.0
75502,'1',32.0,3.401,22.7,-12.5,1.02,0,100.0,0.0,1.0,0.0,0.0,1.0,1,100.0,32.0,13.12,1,1.0,0,1.0,0,1.0,0,1.0,0,1.0
75502,'2',32.0,3.401,23.2,-12.5,1.02,0,100.0,0.0,1.0,0.0,0.0,1.0,1,100.0,32.0,12.0,1,1.0,0,1.0,0,1.0,0,1.0,0,1.0
75503,'1',48.6,12.593,34.5,-23.8,1.02,0,100.0,0.0,1.0,0.0,0.0,1.0,1,100.0,61.0,30.0,1,1.0,0,1.0,0,1.0,0,1.0,0,1.0
75503,'2',32.0,12.593,23.2,-12.5,1.02,0,100.0,0.0,1.0,0.0,0.0,1.0,1,100.0,32.0,15.0,1,1.0,0,1.0,0,1.0,0,1.0,0,1.0
75507,'2',23.3,20.998,89.6,-61.7,1.02,0,100.0,0.0,1.0,0.0,0.0,1.0,1,100.0,23.3,0.0,1,1.0,0,1.0,0,1.0,0,1.0,1,1.0
75511,'2',21.12,20.323,58.2,-58.2,1.02,0,100.0,0.0,1.0,0.0,0.0,1.0,1,100.0,21.12,0.0,1,1.0,0,1.0,0,1.0,0,1.0,1,1.0
75513,'1',148.0,11.335,108.8,-58.5,1.02,0,100.0,0.0,1.0,0.0,0.0,1.0,1,100.0,148.0,45.0,1,1.0,0,1.0,0,1.0,0,1.0,0,1.0
75513,'2',64.0,11.335,46.5,-25.0,1.02,0,100.0,0.0,1.0,0.0,0.0,1.0,1,100.0,64.0,20.0,1,1.0,0,1.0,0,1.0,0,1.0,0,1.0
75514,'2',32.0,23.2,23.2,-12.5,1.02,0,100.0,0.0,1.0,0.0,0.0,1.0,1,100.0,32.0,14.0,1,1.0,0,1.0,0,1.0,0,1.0,0,1.0
75517,'1',102.6,32.955,92.2,-49.6,1.02,0,100.0,0.0,1.0,0.0,0.0,1.0,1,100.0,117.0,45.0,1,1.0,0,1.0,0,1.0,0,1.0,0,1.0
75517,'3',36.24,31.0,31.0,-16.7,1.02,0,100.0,0.0,1.0,0.0,0.0,1.0,1,100.0,43.0,9.2,1,1.0,0,1.0,0,1.0,0,1.0,0,1.0
75519,'2',35.31,6.54,70.8,-70.8,1.02,0,100.0,0.0,1.0,0.0,0.0,1.0,1,100.0,35.31,0.0,1,1.0,0,1.0,0,1.0,0,1.0,1,1.0
75523,'1',986.0,47.177,593.2,-408.3,1.02,0,100.0,0.0,1.0,0.0,0.0,1.0,1,100.0,986.0,657.6,1,1.0,0,1.0,0,1.0,0,1.0,0,1.0
75524,'1',986.0,99.777,593.2,-408.3,1.02,0,100.0,0.0,1.0,0.0,0.0,1.0,1,100.0,986.0,658.1,1,1.0,0,1.0,0,1.0,0,1.0,0,1.0
75529,'1',993.0,-5.853,566.7,-390.0,1.02,0,100.0,0.0,1.0,0.0,0.0,1.0,1,100.0,993.0,135.0,1,1.0,0,1.0,0,1.0,0,1.0,0,1.0
75533,'1',969.0,10.021,551.3,-379.4,1.02,0,100.0,0.0,1.0,0.0,0.0,1.0,1,100.0,969.0,298.1,1,1.0,0,1.0,0,1.0,0,1.0,0,1.0
75537,'1',800.0,45.531,349.3,-349.3,1.02,0,100.0,0.0,1.0,0.0,0.0,1.0,1,100.0,800.0,150.0,1,1.0,0,1.0,0,1.0,0,1.0,0,1.0
75537,'2',800.0,45.531,349.3,-349.3,1.02,0,100.0,0.0,1.0,0.0,0.0,1.0,1,100.0,800.0,150.0,1,1.0,0,1.0,0,1.0,0,1.0,0,1.0
75538,'1',800.0,-311.605,349.3,-349.3,1.02,0,100.0,0.0,1.0,0.0,0.0,1.0,1,100.0,800.0,132.0,1,1.0,0,1.0,0,1.0,0,1.0,0,1.0
75538,'2',800.0,-311.605,349.3,-349.3,1.02,0,100.0,0.0,1.0,0.0,0.0,1.0,1,100.0,800.0,132.0,1,1.0,0,1.0,0,1.0,0,1.0,0,1.0
75541,'1',439.0,-3.701,432.4,-297.6,1.02,0,100.0,0.0,1.0,0.0,0.0,1.0,1,100.0,610.0,325.0,1,1.0,0,1.0,0,1.0,0,1.0,0,1.0
75541,'2',439.0,-3.701,432.4,-297.6,1.02,0,100.0,0.0,1.0,0.0,0.0,1.0,1,100.0,610.0,325.0,1,1.0,0,1.0,0,1.0,0,1.0,0,1.0
75543,'1',384.6,213.208,319.7,-220.0,1.02,0,100.0,0.0,1.0,0.0,0.0,1.0,1,100.0,561.0,120.0,1,1.0,0,1.0,0,1.0,0,1.0,0,1.0
75543,'2',461.6,213.208,319.7,-220.0,1.02,0,100.0,0.0,1.0,0.0,0.0,1.0,1,100.0,547.0,120.0,1,1.0,0,1.0,0,1.0,0,1.0,0,1.0
75546,'1',585.0,-43.932,319.4,-219.8,1.02,0,100.0,0.0,1.0,0.0,0.0,1.0,1,100.0,585.0,240.0,1,1.0,0,1.0,0,1.0,0,1.0,0,1.0
75546,'2',540.0,-43.932,319.4,-219.8,1.02,0,100.0,0.0,1.0,0.0,0.0,1.0,1,100.0,540.0,240.0,1,1.0,0,1.0,0,1.0,0,1.0,0,1.0
75549,'1',556.0,46.14,307.3,-211.5,1.02,0,100.0,0.0,1.0,0.0,0.0,1.0,1,100.0,556.0,250.0,1,1.0,0,1.0,0,1.0,0,1.0,0,1.0
75549,'2',525.0,46.14,307.3,-211.5,1.02,0,100.0,0.0,1.0,0.0,0.0,1.0,1,100.0,525.0,250.0,1,1.0,0,1.0,0,1.0,0,1.0,0,1.0
75549,'3',525.0,46.14,387.4,-208.4,1.02,0,100.0,0.0,1.0,0.0,0.0,1.0,1,100.0,525.0,250.0,1,1.0,0,1.0,0,1.0,0,1.0,0,1.0
75551,'1',300.0,-52.183,299.0,-205.8,1.02,0,100.0,0.0,1.0,0.0,0.0,1.0,1,100.0,525.0,300.0,1,1.0,0,1.0,0,1.0,0,1.0,0,1.0
75553,'1',331.0,-7.121,236.3,-162.7,1.02,0,100.0,0.0,1.0,0.0,0.0,1.0,1,100.0,331.0,95.0,1,1.0,0,1.0,0,1.0,0,1.0,0,1.0
75555,'1',330.0,5.861,273.3,-147.0,1.02,0,100.0,0.0,1.0,0.0,0.0,1.0,1,100.0,330.0,245.0,1,1.0,0,1.0,0,1.0,0,1.0,0,1.0
75558,'1',318.0,-129.6,241.0,-129.6,1.02,0,100.0,0.0,1.0,0.0,0.0,1.0,1,100.0,318.0,200.0,1,1.0,0,1.0,0,1.0,0,1.0,0,1.0
75558,'2',506.0,-143.633,298.6,-205.5,1.02,0,100.0,0.0,1.0,0.0,0.0,1.0,1,100.0,506.0,310.0,1,1.0,0,1.0,0,1.0,0,1.0,0,1.0
75559,'2',10.0,23.6,23.6,-12.7,1.02,0,100.0,0.0,1.0,0.0,0.0,1.0,1,100.0,33.0,10.0,1,1.0,0,1.0,0,1.0,0,1.0,0,1.0
75559,'3',10.0,23.6,23.6,-12.7,1.02,0,100.0,0.0,1.0,0.0,0.0,1.0,1,100.0,33.0,10.0,1,1.0,0,1.0,0,1.0,0,1.0,0,1.0
75559,'5',10.0,23.6,23.6,-12.7,1.02,0,100.0,0.0,1.0,0.0,0.0,1.0,1,100.0,33.0,10.0,1,1.0,0,1.0,0,1.0,0,1.0,0,1.0
75559,'7',10.0,23.6,23.6,-12.7,1.02,0,100.0,0.0,1.0,0.0,0.0,1.0,1,100.0,32.0,10.0,1,1.0,0,1.0,0,1.0,0,1.0,0,1.0
75559,'9',307.0,226.9,226.9,-124.7,1.02,0,100.0,0.0,1.0,0.0,0.0,1.0,1,100.0,307.0,149.6,1,1.0,0,1.0,0,1.0,0,1.0,0,1.0
75560,'1',299.0,188.95,223.4,-120.1,1.02,0,100.0,0.0,1.0,0.0,0.0,1.0,1,100.0,299.0,95.0,1,1.0,0,1.0,0,1.0,0,1.0,0,1.0
75562,'5',270.0,107.539,202.3,-108.8,1.02,0,100.0,0.0,1.0,0.0,0.0,1.0,1,100.0,270.0,130.0,1,1.0,0,1.0,0,1.0,0,1.0,0,1.0
75562,'6',297.0,107.539,220.2,-118.4,1.02,0,100.0,0.0,1.0,0.0,0.0,1.0,1,100.0,297.0,130.0,1,1.0,0,1.0,0,1.0,0,1.0,0,1.0
75565,'1',84.5,-90.141,145.3,-100.0,1.02,0,100.0,0.0,1.0,0.0,0.0,1.0,1,100.0,84.5,0.0,1,1.0,0,1.0,0,1.0,0,1.0,1,1.0
75567,'1',190.0,138.2,138.2,-79.8,1.02,0,100.0,0.0,1.0,0.0,0.0,1.0,1,100.0,190.0,93.33,1,1.0,0,1.0,0,1.0,0,1.0,0,1.0
75567,'2',298.0,217.2,217.2,-119.4,1.02,0,100.0,0.0,1.0,0.0,0.0,1.0,1,100.0,298.0,143.24,1,1.0,0,1.0,0,1.0,0,1.0,0,1.0
75568,'1',118.0,-1.614,108.1,-74.4,1.02,0,100.0,0.0,1.0,0.0,0.0,1.0,1,100.0,186.0,118.0,1,1.0,0,1.0,0,1.0,0,1.0,0,1.0
75568,'3',67.0,-1.614,45.8,-27.0,1.02,0,100.0,0.0,1.0,0.0,0.0,1.0,1,100.0,67.0,42.0,1,1.0,0,1.0,0,1.0,0,1.0,0,1.0
75568,'4',96.0,-1.614,70.4,-37.9,1.02,0,100.0,0.0,1.0,0.0,0.0,1.0,1,100.0,96.0,58.0,1,1.0,0,1.0,0,1.0,0,1.0,0,1.0
75569,'1',45.725,49.537,105.3,-72.5,1.02,0,100.0,0.0,1.0,0.0,0.0,1.0,1,100.0,45.725,0.0,1,1.0,0,1.0,0,1.0,0,1.0,1,1.0
75570,'1',134.0,42.643,118.5,-63.7,1.02,0,100.0,0.0,1.0,0.0,0.0,1.0,1,100.0,160.0,134.0,1,1.0,0,1.0,0,1.0,0,1.0,0,1.0
75570,'2',147.0,42.643,130.1,-70.0,1.02,0,100.0,0.0,1.0,0.0,0.0,1.0,1,100.0,177.0,147.0,1,1.0,0,1.0,0,1.0,0,1.0,0,1.0
75572,'1',86.0,3.389,96.9,-66.7,1.02,0,100.0,0.0,1.0,0.0,0.0,1.0,1,100.0,86.0,0.0,1,1.0,0,1.0,0,1.0,0,1.0,1,1.0
75574,'3',100.0,123.3,123.3,-66.3,1.02,0,100.0,0.0,1.0,0.0,0.0,1.0,1,100.0,175.0,100.0,1,1.0,0,1.0,0,1.0,0,1.0,0,1.0
75576,'1',91.08,-1.203,95.9,-66.0,1.02,0,100.0,0.0,1.0,0.0,0.0,1.0,1,100.0,91.08,0.0,1,1.0,0,1.0,0,1.0,0,1.0,1,1.0
75576,'2',28.7,-1.203,95.9,-66.0,1.02,0,100.0,0.0,1.0,0.0,0.0,1.0,1,100.0,28.7,0.0,1,1.0,0,1.0,0,1.0,0,1.0,1,1.0
75581,'1',88.512,123.982,130.1,-61.2,1.02,0,100.0,0.0,1.0,0.0,0.0,1.0,1,100.0,156.0,71.64,1,1.0,0,1.0,0,1.0,0,1.0,0,1.0
75581,'2',90.296,123.982,132.8,-62.5,1.02,0,100.0,0.0,1.0,0.0,0.0,1.0,1,100.0,159.0,73.12,1,1.0,0,1.0,0,1.0,0,1.0,0,1.0
75581,'3',239.0,123.982,185.4,-99.7,1.02,0,100.0,0.0,1.0,0.0,0.0,1.0,1,100.0,239.0,95.0,1,1.0,0,1.0,0,1.0,0,1.0,0,1.0
75581,'4',375.0,123.982,370.9,-199.5,1.02,0,100.0,0.0,1.0,0.0,0.0,1.0,1,100.0,505.0,180.0,1,1.0,0,1.0,0,1.0,0,1.0,0,1.0
75582,'1',110.6,-34.046,113.6,-61.1,1.02,0,100.0,0.0,1.0,0.0,0.0,1.0,1,100.0,153.0,47.0,1,1.0,0,1.0,0,1.0,0,1.0,0,1.0
75582,'2',110.6,-34.046,113.6,-61.1,1.02,0,100.0,0.0,1.0,0.0,0.0,1.0,1,100.0,153.0,47.0,1,1.0,0,1.0,0,1.0,0,1.0,0,1.0
75582,'3',112.4,-34.046,113.6,-61.1,1.02,0,100.0,0.0,1.0,0.0,0.0,1.0,1,100.0,156.0,47.0,1,1.0,0,1.0,0,1.0,0,1.0,0,1.0
75582,'4',110.6,-34.046,113.6,-61.1,1.02,0,100.0,0.0,1.0,0.0,0.0,1.0,1,100.0,153.0,47.0,1,1.0,0,1.0,0,1.0,0,1.0,0,1.0
75582,'5',112.4,-34.046,113.6,-61.1,1.02,0,100.0,0.0,1.0,0.0,0.0,1.0,1,100.0,156.0,47.0,1,1.0,0,1.0,0,1.0,0,1.0,0,1.0
75582,'6',112.4,-34.046,113.6,-61.1,1.02,0,100.0,0.0,1.0,0.0,0.0,1.0,1,100.0,156.0,47.0,1,1.0,0,1.0,0,1.0,0,1.0,0,1.0
75584,'1',152.0,80.919,111.6,-60.0,1.02,0,100.0,0.0,1.0,0.0,0.0,1.0,1,100.0,152.0,90.0,1,1.0,0,1.0,0,1.0,0,1.0,0,1.0
75584,'4',153.0,80.919,111.6,-60.0,1.02,0,100.0,0.0,1.0,0.0,0.0,1.0,1,100.0,153.0,90.0,1,1.0,0,1.0,0,1.0,0,1.0,0,1.0
75586,'1',150.0,-28.12,110.6,-59.5,1.02,0,100.0,0.0,1.0,0.0,0.0,1.0,1,100.0,150.0,100.0,1,1.0,0,1.0,0,1.0,0,1.0,0,1.0
75586,'3',183.2,-28.12,213.9,-115.0,1.02,0,100.0,0.0,1.0,0.0,0.0,1.0,1,100.0,272.0,50.0,1,1.0,0,1.0,0,1.0,0,1.0,0,1.0
75587,'1',100.0,46.819,97.9,-52.7,1.02,0,100.0,0.0,1.0,0.0,0.0,1.0,1,100.0,133.0,100.0,1,1.0,0,1.0,0,1.0,0,1.0,0,1.0
75587,'2',100.0,46.819,97.9,-52.7,1.02,0,100.0,0.0,1.0,0.0,0.0,1.0,1,100.0,133.0,100.0,1,1.0,0,1.0,0,1.0,0,1.0,0,1.0
75588,'1',127.0,0.0,0.0,0.0,1.02,0,100.0,0.0,1.0,0.0,0.0,1.0,1,100.0,145.0,100.0,1,1.0,0,1.0,0,1.0,0,1.0,0,1.0
75589,'1',32.1,8.657,66.1,-66.1,1.02,0,100.0,0.0,1.0,0.0,0.0,1.0,1,100.0,32.1,0.0,1,1.0,0,1.0,0,1.0,0,1.0,1,1.0
75592,'1',116.0,1.733,84.3,-45.3,1.02,0,100.0,0.0,1.0,0.0,0.0,1.0,1,100.0,116.0,70.0,1,1.0,0,1.0,0,1.0,0,1.0,0,1.0
75592,'2',229.0,1.733,173.8,-93.5,1.02,0,100.0,0.0,1.0,0.0,0.0,1.0,1,100.0,229.0,140.0,1,1.0,0,1.0,0,1.0,0,1.0,0,1.0
75592,'3',303.0,1.733,225.5,-121.3,1.02,0,100.0,0.0,1.0,0.0,0.0,1.0,1,100.0,303.0,175.0,1,1.0,0,1.0,0,1.0,0,1.0,0,1.0
75593,'1',115.0,17.251,65.4,-45.0,1.02,0,100.0,0.0,1.0,0.0,0.0,1.0,1,100.0,115.0,89.0,1,1.0,0,1.0,0,1.0,0,1.0,0,1.0
75593,'2',115.0,17.251,65.4,-45.0,1.02,0,100.0,0.0,1.0,0.0,0.0,1.0,1,100.0,115.0,89.0,1,1.0,0,1.0,0,1.0,0,1.0,0,1.0
75595,'1',115.0,0.178,65.4,-45.0,1.02,0,100.0,0.0,1.0,0.0,0.0,1.0,1,100.0,115.0,66.0,1,1.0,0,1.0,0,1.0,0,1.0,0,1.0
75595,'2',114.0,0.178,65.4,-45.0,1.02,0,100.0,0.0,1.0,0.0,0.0,1.0,1,100.0,114.0,66.0,1,1.0,0,1.0,0,1.0,0,1.0,0,1.0
75598,'1',114.0,65.4,65.4,-45.0,1.02,0,100.0,0.0,1.0,0.0,0.0,1.0,1,100.0,114.0,104.0,1,1.0,0,1.0,0,1.0,0,1.0,0,1.0
75598,'2',115.0,65.4,65.4,-45.0,1.02,0,100.0,0.0,1.0,0.0,0.0,1.0,1,100.0,115.0,104.0,1,1.0,0,1.0,0,1.0,0,1.0,0,1.0
75598,'3',115.0,65.4,65.4,-45.0,1.02,0,100.0,0.0,1.0,0.0,0.0,1.0,1,100.0,115.0,104.0,1,1.0,0,1.0,0,1.0,0,1.0,0,1.0
75598,'4',114.0,65.4,65.4,-45.0,1.02,0,100.0,0.0,1.0,0.0,0.0,1.0,1,100.0,114.0,104.0,1,1.0,0,1.0,0,1.0,0,1.0,0,1.0
75599,'1',97.0,-0.696,70.7,-38.0,1.02,0,100.0,0.0,1.0,0.0,0.0,1.0,1,100.0,97.0,50.0,1,1.0,0,1.0,0,1.0,0,1.0,0,1.0
75599,'2',97.0,-0.696,70.7,-38.0,1.02,0,100.0,0.0,1.0,0.0,0.0,1.0,1,100.0,97.0,39.0,1,1.0,0,1.0,0,1.0,0,1.0,0,1.0
75599,'3',97.0,-0.696,70.7,-38.0,1.02,0,100.0,0.0,1.0,0.0,0.0,1.0,1,100.0,97.0,39.0,1,1.0,0,1.0,0,1.0,0,1.0,0,1.0
75599,'4',97.0,-0.696,70.7,-38.0,1.02,0,100.0,0.0,1.0,0.0,0.0,1.0,1,100.0,97.0,39.0,1,1.0,0,1.0,0,1.0,0,1.0,0,1.0
75601,'1',97.0,36.939,70.7,-38.0,1.02,0,100.0,0.0,1.0,0.0,0.0,1.0,1,100.0,97.0,47.0,1,1.0,0,1.0,0,1.0,0,1.0,0,1.0
75601,'2',97.0,36.939,70.7,-38.0,1.02,0,100.0,0.0,1.0,0.0,0.0,1.0,1,100.0,97.0,47.0,1,1.0,0,1.0,0,1.0,0,1.0,0,1.0
75601,'6',97.0,36.939,70.7,-38.0,1.02,0,100.0,0.0,1.0,0.0,0.0,1.0,1,100.0,97.0,47.0,1,1.0,0,1.0,0,1.0,0,1.0,0,1.0
75602,'1',91.0,69.7,69.7,-37.5,1.02,0,100.0,0.0,1.0,0.0,0.0,1.0,1,100.0,91.0,35.0,1,1.0,0,1.0,0,1.0,0,1.0,0,1.0
75602,'5',310.0,117.449,240.2,-129.2,1.02,0,100.0,0.0,1.0,0.0,0.0,1.0,1,100.0,310.0,115.0,1,1.0,0,1.0,0,1.0,0,1.0,0,1.0
75603,'1',88.2,4.87,45.0,-45.0,1.02,0,100.0,0.0,1.0,0.0,0.0,1.0,1,100.0,88.2,0.0,1,1.0,0,1.0,0,1.0,0,1.0,1,1.0
75607,'1',64.32,7.59,44.3,-44.3,1.02,0,100.0,0.0,1.0,0.0,0.0,1.0,1,100.0,64.32,0.0,1,1.0,0,1.0,0,1.0,0,1.0,1,1.0
75608,'1',64.1,-8.138,44.3,-44.3,1.02,0,100.0,0.0,1.0,0.0,0.0,1.0,1,100.0,64.1,0.0,1,1.0,0,1.0,0,1.0,0,1.0,1,1.0
75611,'1',90.0,1.023,100.4,-69.1,1.02,0,100.0,0.0,1.0,0.0,0.0,1.0,1,100.0,170.0,90.0,1,1.0,0,1.0,0,1.0,0,1.0,0,1.0
75611,'2',48.0,1.023,29.6,-29.6,1.02,0,100.0,0.0,1.0,0.0,0.0,1.0,1,100.0,76.0,48.0,1,1.0,0,1.0,0,1.0,0,1.0,0,1.0
75611,'3',48.0,1.023,43.7,-30.1,1.02,0,100.0,0.0,1.0,0.0,0.0,1.0,1,100.0,76.0,48.0,1,1.0,0,1.0,0,1.0,0,1.0,0,1.0
75611,'4',188.0,1.023,142.6,-76.7,1.02,0,100.0,0.0,1.0,0.0,0.0,1.0,1,100.0,188.0,75.0,1,1.0,0,1.0,0,1.0,0,1.0,0,1.0
75612,'1',74.0,38.953,55.2,-29.7,1.02,0,100.0,0.0,1.0,0.0,0.0,1.0,1,100.0,74.0,45.0,1,1.0,0,1.0,0,1.0,0,1.0,0,1.0
75612,'2',74.0,38.953,55.2,-29.7,1.02,0,100.0,0.0,1.0,0.0,0.0,1.0,1,100.0,74.0,45.0,1,1.0,0,1.0,0,1.0,0,1.0,0,1.0
75612,'3',76.0,38.953,55.2,-29.7,1.02,0,100.0,0.0,1.0,0.0,0.0,1.0,1,100.0,76.0,45.0,1,1.0,0,1.0,0,1.0,0,1.0,0,1.0
75612,'4',76.0,38.953,55.2,-29.7,1.02,0,100.0,0.0,1.0,0.0,0.0,1.0,1,100.0,76.0,45.0,1,1.0,0,1.0,0,1.0,0,1.0,0,1.0
75614,'1',74.0,9.88,53.6,-28.8,1.02,0,100.0,0.0,1.0,0.0,0.0,1.0,1,100.0,74.0,45.0,1,1.0,0,1.0,0,1.0,0,1.0,0,1.0
75614,'2',74.0,9.88,53.6,-28.8,1.02,0,100.0,0.0,1.0,0.0,0.0,1.0,1,100.0,74.0,45.0,1,1.0,0,1.0,0,1.0,0,1.0,0,1.0
75614,'3',74.0,9.88,53.6,-28.8,1.02,0,100.0,0.0,1.0,0.0,0.0,1.0,1,100.0,74.0,45.0,1,1.0,0,1.0,0,1.0,0,1.0,0,1.0
75614,'4',74.0,9.88,53.6,-28.8,1.02,0,100.0,0.0,1.0,0.0,0.0,1.0,1,100.0,74.0,45.0,1,1.0,0,1.0,0,1.0,0,1.0,0,1.0
75614,'5',72.0,9.88,53.6,-28.8,1.02,0,100.0,0.0,1.0,0.0,0.0,1.0,1,100.0,72.0,45.0,1,1.0,0,1.0,0,1.0,0,1.0,0,1.0
75614,'6',74.0,9.88,53.6,-28.8,1.02,0,100.0,0.0,1.0,0.0,0.0,1.0,1,100.0,74.0,45.0,1,1.0,0,1.0,0,1.0,0,1.0,0,1.0
75614,'7',72.0,9.88,53.6,-28.8,1.02,0,100.0,0.0,1.0,0.0,0.0,1.0,1,100.0,72.0,45.0,1,1.0,0,1.0,0,1.0,0,1.0,0,1.0
75614,'8',72.0,9.88,53.6,-28.8,1.02,0,100.0,0.0,1.0,0.0,0.0,1.0,1,100.0,72.0,45.0,1,1.0,0,1.0,0,1.0,0,1.0,0,1.0
75615,'1',64.0,20.668,56.3,-25.0,1.02,0,100.0,0.0,1.0,0.0,0.0,1.0,1,100.0,64.0,25.0,1,1.0,0,1.0,0,1.0,0,1.0,0,1.0
75615,'2',190.0,20.668,143.3,-77.1,1.02,0,100.0,0.0,1.0,0.0,0.0,1.0,1,100.0,190.0,80.0,1,1.0,0,1.0,0,1.0,0,1.0,0,1.0
75618,'1',59.0,43.109,44.0,-23.7,1.02,0,100.0,0.0,1.0,0.0,0.0,1.0,1,100.0,59.0,32.0,1,1.0,0,1.0,0,1.0,0,1.0,0,1.0
75618,'2',57.0,43.109,44.0,-23.7,1.02,0,100.0,0.0,1.0,0.0,0.0,1.0,1,100.0,57.0,32.0,1,1.0,0,1.0,0,1.0,0,1.0,0,1.0
75618,'3',61.0,43.109,44.0,-23.7,1.02,0,100.0,0.0,1.0,0.0,0.0,1.0,1,100.0,61.0,32.0,1,1.0,0,1.0,0,1.0,0,1.0,0,1.0
75618,'4',61.0,43.109,44.0,-23.7,1.02,0,100.0,0.0,1.0,0.0,0.0,1.0,1,100.0,61.0,32.0,1,1.0,0,1.0,0,1.0,0,1.0,0,1.0
75618,'5',59.0,43.109,44.0,-23.7,1.02,0,100.0,0.0,1.0,0.0,0.0,1.0,1,100.0,59.0,32.0,1,1.0,0,1.0,0,1.0,0,1.0,0,1.0
75618,'6',61.0,43.109,44.0,-23.7,1.02,0,100.0,0.0,1.0,0.0,0.0,1.0,1,100.0,61.0,32.0,1,1.0,0,1.0,0,1.0,0,1.0,0,1.0
75621,'1',52.0,37.8,37.8,-20.3,1.02,0,100.0,0.0,1.0,0.0,0.0,1.0,1,100.0,52.0,5.0,1,1.0,0,1.0,0,1.0,0,1.0,0,1.0
75621,'3',97.0,60.5,60.5,-41.7,1.02,0,100.0,0.0,1.0,0.0,0.0,1.0,1,100.0,97.0,67.0,1,1.0,0,1.0,0,1.0,0,1.0,0,1.0
75623,'1',51.0,5.911,37.2,-20.0,1.02,0,100.0,0.0,1.0,0.0,0.0,1.0,1,100.0,51.0,32.0,1,1.0,0,1.0,0,1.0,0,1.0,0,1.0
75623,'2',51.0,5.911,37.2,-20.0,1.02,0,100.0,0.0,1.0,0.0,0.0,1.0,1,100.0,51.0,32.0,1,1.0,0,1.0,0,1.0,0,1.0,0,1.0
75623,'3',52.0,5.911,37.5,-20.2,1.02,0,100.0,0.0,1.0,0.0,0.0,1.0,1,100.0,52.0,32.0,1,1.0,0,1.0,0,1.0,0,1.0,0,1.0
75623,'4',52.0,5.911,37.5,-20.2,1.02,0,100.0,0.0,1.0,0.0,0.0,1.0,1,100.0,52.0,32.0,1,1.0,0,1.0,0,1.0,0,1.0,0,1.0
75623,'5',52.0,5.911,37.5,-20.2,1.02,0,100.0,0.0,1.0,0.0,0.0,1.0,1,100.0,52.0,32.0,1,1.0,0,1.0,0,1.0,0,1.0,0,1.0
75623,'6',52.0,5.911,37.5,-20.2,1.02,0,100.0,0.0,1.0,0.0,0.0,1.0,1,100.0,52.0,32.0,1,1.0,0,1.0,0,1.0,0,1.0,0,1.0
75623,'7',52.0,5.911,37.5,-20.2,1.02,0,100.0,0.0,1.0,0.0,0.0,1.0,1,100.0,52.0,32.0,1,1.0,0,1.0,0,1.0,0,1.0,0,1.0
75623,'8',52.0,5.911,37.5,-20.2,1.02,0,100.0,0.0,1.0,0.0,0.0,1.0,1,100.0,52.0,32.0,1,1.0,0,1.0,0,1.0,0,1.0,0,1.0
75625,'1',51.0,21.201,36.5,-19.6,1.02,0,100.0,0.0,1.0,0.0,0.0,1.0,1,100.0,51.0,12.5,1,1.0,0,1.0,0,1.0,0,1.0,0,1.0
75625,'2',51.0,21.201,36.5,-19.6,1.02,0,100.0,0.0,1.0,0.0,0.0,1.0,1,100.0,51.0,12.5,1,1.0,0,1.0,0,1.0,0,1.0,0,1.0
75625,'3',51.0,21.201,36.5,-19.6,1.02,0,100.0,0.0,1.0,0.0,0.0,1.0,1,100.0,51.0,12.5,1,1.0,0,1.0,0,1.0,0,1.0,0,1.0
75625,'4',50.0,21.201,36.5,-19.6,1.02,0,100.0,0.0,1.0,0.0,0.0,1.0,1,100.0,50.0,12.5,1,1.0,0,1.0,0,1.0,0,1.0,0,1.0
75625,'5',50.0,21.201,36.5,-19.6,1.02,0,100.0,0.0,1.0,0.0,0.0,1.0,1,100.0,50.0,12.5,1,1.0,0,1.0,0,1.0,0,1.0,0,1.0
75625,'6',49.0,21.201,36.5,-19.6,1.02,0,100.0,0.0,1.0,0.0,0.0,1.0,1,100.0,49.0,12.5,1,1.0,0,1.0,0,1.0,0,1.0,0,1.0
75626,'1',44.0,31.5,31.5,-17.0,1.02,0,100.0,0.0,1.0,0.0,0.0,1.0,1,100.0,44.0,20.0,1,1.0,0,1.0,0,1.0,0,1.0,0,1.0
75626,'2',44.0,31.5,31.5,-17.0,1.02,0,100.0,0.0,1.0,0.0,0.0,1.0,1,100.0,44.0,20.0,1,1.0,0,1.0,0,1.0,0,1.0,0,1.0
...
0 / END OF GENERATOR DATA BEGIN BRANCH DATA
39876,44106,'1',0.00473964,0.05506,0.02232,397.0,397.0,397.0,0.0,0.0,0.0,0.0,1,1,9.9,1,1.0,0,1.0,0,1.0,0,1.0
39877,43705,'1',0.0137014,0.04906,0.00101,88.75,88.75,144.0,0.0,0.0,0.0,0.0,1,1,1.6,1,1.0,0,1.0,0,1.0,0,1.0
39879,43441,'1',0.000993929,0.01159,0.00426,384.0,384.0,384.0,0.0,0.0,0.0,0.0,1,1,1.6,1,1.0,0,1.0,0,1.0,0,1.0
39879,76813,'1',0.00547071,0.01653,0.0044,148.0,148.0,148.0,0.0,0.0,0.0,0.0,1,1,2.5,1,1.0,0,1.0,0,1.0,0,1.0
39880,75452,'1',0.00416464,0.01714,0.00971,294.0,294.0,294.0,0.0,0.0,0.0,0.0,1,1,4.1,1,1.0,0,1.0,0,1.0,0,1.0
39880,75520,'1',0.0010925,0.01639,0.00529,434.0,434.0,434.0,0.0,0.0,0.0,0.0,1,1,2.5,1,1.0,0,1.0,0,1.0,0,1.0
39881,43384,'1',0.168861,0.47758,0.0091,73.75,73.75,73.75,0.0,0.0,0.0,0.0,1,1,18.9,1,1.0,0,1.0,0,1.0,0,1.0
39881,43385,'1',0.152334,0.43077,0.00821,73.75,73.75,73.75,0.0,0.0,0.0,0.0,1,1,17.3,1,1.0,0,1.0,0,1.0,0,1.0
39882,43874,'1',0.04002,0.11537,0.00211,73.75,73.75,73.75,0.0,0.0,0.0,0.0,1,1,4.1,1,1.0,0,1.0,0,1.0,0,1.0
39882,43877,'1',0.0138246,0.06475,0.00111,100.0,100.0,100.0,0.0,0.0,0.0,0.0,1,1,2.5,1,1.0,0,1.0,0,1.0,0,1.0
39883,43294,'1',0.0895111,0.25811,0.00472,73.75,73.75,73.75,0.0,0.0,0.0,0.0,1,1,9.9,1,1.0,0,1.0,0,1.0,0,1.0
39883,43554,'1',0.131174,0.40161,0.00651,73.75,73.75,73.75,0.0,0.0,0.0,0.0,1,1,14.8,1,1.0,0,1.0,0,1.0,0,1.0
39884,43409,'1',0.0218993,0.10372,0.00173,100.0,100.0,144.0,0.0,0.0,0.0,0.0,1,1,4.1,1,1.0,0,1.0,0,1.0,0,1.0
39886,43390,'1',0.0985796,0.3053,0.00483,73.75,73.75,73.75,0.0,0.0,0.0,0.0,1,1,10.7,1,1.0,0,1.0,0,1.0,0,1.0
39886,43391,'1',0.0671107,0.21594,0.00316,73.75,73.75,73.75,0.0,0.0,0.0,0.0,1,1,7.4,1,1.0,0,1.0,0,1.0,0,1.0
39886,43394,'1',0.0585432,0.18126,0.00287,73.75,73.75,73.75,0.0,0.0,0.0,0.0,1,1,6.6,1,1.0,0,1.0,0,1.0,0,1.0
39887,44076,'1',0.0810832,0.25378,0.00393,73.75,73.75,73.75,0.0,0.0,0.0,0.0,1,1,9.0,1,1.0,0,1.0,0,1.0,0,1.0
39887,44077,'1',0.0791118,0.2281,0.00417,73.75,73.75,73.75,0.0,0.0,0.0,0.0,1,1,9.0,1,1.0,0,1.0,0,1.0,0,1.0
39889,43565,'1',0.156991,0.40835,0.00923,73.75,73.75,73.75,0.0,0.0,0.0,0.0,1,1,17.3,1,1.0,0,1.0,0,1.0,0,1.0
39889,43567,'1',0.0918029,0.27363,0.00468,73.75,73.75,73.75,0.0,0.0,0.0,0.0,1,1,9.9,1,1.0,0,1.0,0,1.0,0,1.0
39889,44015,'1',0.0530479,0.1603,0.00266,73.75,73.75,73.75,0.0,0.0,0.0,0.0,1,1,5.8,1,1.0,0,1.0,0,1.0,0,1.0
39889,44016,'1',0.0825371,0.25559,0.00404,73.75,73.75,73.75,0.0,0.0,0.0,0.0,1,1,9.0,1,1.0,0,1.0,0,1.0,0,1.0
39890,76797,'1',0.00680964,0.0852,0.16798,592.0,592.0,592.0,0.0,0.0,0.0,0.0,1,1,33.7,1,1.0,0,1.0,0,1.0,0,1.0
39891,42755,'1',0.00161821,0.00589,0.00133,160.0,160.0,160.0,0.0,0.0,0.0,0.0,1,1,0.8,1,1.0,0,1.0,0,1.0,0,1.0
39891,77043,'1',0.0001725,0.00326,0.00221,813.0,813.0,813.0,0.0,0.0,0.0,0.0,1,1,0.8,1,1.0,0,1.0,0,1.0,0,1.0
39892,43836,'1',0.0240104,0.07433,0.00118,73.75,73.75,73.75,0.0,0.0,0.0,0.0,1,1,2.5,1,1.0,0,1.0,0,1.0,0,1.0
39892,43851,'1',0.00280929,0.00793,0.00015,86.25,86.25,86.25,0.0,0.0,0.0,0.0,1,1,0.0,1,1.0,0,1.0,0,1.0,0,1.0
39892,43852,'1',0.0106868,0.03647,0.00047,73.75,73.75,73.75,0.0,0.0,0.0,0.0,1,1,0.8,1,1.0,0,1.0,0,1.0,0,1.0
39895,43491,'1',0.0586418,0.16194,0.00323,73.75,73.75,73.75,0.0,0.0,0.0,0.0,1,1,6.6,1,1.0,0,1.0,0,1.0,0,1.0
39896,43491,'1',0.0197636,0.06235,0.00118,80.0,80.0,80.0,0.0,0.0,0.0,0.0,1,1,2.5,1,1.0,0,1.0,0,1.0,0,1.0
39896,43492,'1',0.0866689,0.27128,0.0042,73.75,73.75,73.75,0.0,0.0,0.0,0.0,1,1,9.9,1,1.0,0,1.0,0,1.0,0,1.0
39896,43494,'1',0.117604,0.33247,0.00633,73.75,73.75,73.75,0.0,0.0,0.0,0.0,1,1,13.1,1,1.0,0,1.0,0,1.0,0,1.0
39898,43582,'1',0.0267539,0.08187,0.00133,73.75,73.75,73.75,0.0,0.0,0.0,0.0,1,1,3.3,1,1.0,0,1.0,0,1.0,0,1.0
39898,44468,'1',0.138895,0.40063,0.00733,73.75,73.75,73.75,0.0,0.0,0.0,0.0,1,1,15.6,1,1.0,0,1.0,0,1.0,0,1.0
39901,43682,'1',0.00463286,0.01596,0.0002,73.75,73.75,144.0,0.0,0.0,0.0,0.0,1,1,0.8,1,1.0,0,1.0,0,1.0,0,1.0
39901,43689,'1',0.00311321,0.00973,0.00015,73.75,73.75,73.75,0.0,0.0,0.0,0.0,1,1,0.0,1,1.0,0,1.0,0,1.0,0,1.0
39902,43491,'1',0.109135,0.31471,0.00576,73.75,73.75,73.75,0.0,0.0,0.0,0.0,1,1,12.3,1,1.0,0,1.0,0,1.0,0,1.0
39902,43778,'1',0.171358,0.51823,0.00862,73.75,73.75,73.75,0.0,0.0,0.0,0.0,1,1,18.9,1,1.0,0,1.0,0,1.0,0,1.0
39905,44108,'1',0.0756618,0.21384,0.00407,73.75,73.75,73.75,0.0,0.0,0.0,0.0,1,1,8.2,1,1.0,0,1.0,0,1.0,0,1.0
39908,43858,'1',0.0328,0.10264,0.00159,73.75,73.75,73.75,0.0,0.0,0.0,0.0,1,1,3.3,1,1.0,0,1.0,0,1.0,0,1.0
39908,43869,'1',0.020749,0.06425,0.00102,73.75,73.75,73.75,0.0,0.0,0.0,0.0,1,1,2.5,1,1.0,0,1.0,0,1.0,0,1.0
39908,43897,'1',0.006621,0.01974,0.00034,73.75,73.75,73.75,0.0,0.0,0.0,0.0,1,1,0.8,1,1.0,0,1.0,0,1.0,0,1.0
39909,43440,'1',0.000484643,0.00817,0.00018,194.0,194.0,194.0,0.0,0.0,0.0,0.0,1,1,0.0,1,1.0,0,1.0,0,1.0,0,1.0
39909,43442,'1',0.0284707,0.08816,0.00139,73.75,73.75,73.75,0.0,0.0,0.0,0.0,1,1,3.3,1,1.0,0,1.0,0,1.0,0,1.0
39912,43329,'1',0.0234846,0.0677,0.00124,73.75,73.75,73.75,0.0,0.0,0.0,0.0,1,1,2.5,1,1.0,0,1.0,0,1.0,0,1.0
39912,43332,'1',0.0279779,0.08754,0.00135,73.75,73.75,73.75,0.0,0.0,0.0,0.0,1,1,3.3,1,1.0,0,1.0,0,1.0,0,1.0
39912,43346,'1',0.0239939,0.07953,0.0011,73.75,73.75,73.75,0.0,0.0,0.0,0.0,1,1,2.5,1,1.0,0,1.0,0,1.0,0,1.0
39912,43353,'1',0.0224332,0.07021,0.00109,73.75,73.75,144.0,0.0,0.0,0.0,0.0,1,1,2.5,1,1.0,0,1.0,0,1.0,0,1.0
39912,43354,'1',0.0353214,0.11053,0.00171,73.75,73.75,144.0,0.0,0.0,0.0,0.0,1,1,4.1,1,1.0,0,1.0,0,1.0,0,1.0
39914,39927,'1',8.21429e-06,8e-05,0.0,194.0,194.0,194.0,0.0,0.0,0.0,0.0,1,1,0.0,1,1.0,0,1.0,0,1.0,0,1.0
39915,43309,'1',0.0278382,0.07687,0.00153,73.75,73.75,73.75,0.0,0.0,0.0,0.0,1,1,3.3,1,1.0,0,1.0,0,1.0,0,1.0
39915,43401,'1',0.0802536,0.20863,0.00471,73.75,73.75,73.75,0.0,0.0,0.0,0.0,1,1,9.0,1,1.0,0,1.0,0,1.0,0,1.0
39917,44072,'1',0.155652,0.43015,0.00859,73.75,73.75,73.75,0.0,0.0,0.0,0.0,1,1,17.3,1,1.0,0,1.0,0,1.0,0,1.0
39922,43407,'1',0.0396011,0.11801,0.00202,73.75,73.75,73.75,0.0,0.0,0.0,0.0,1,1,4.1,1,1.0,0,1.0,0,1.0,0,1.0
39922,44108,'1',0.10925,0.33835,0.00535,73.75,73.75,73.75,0.0,0.0,0.0,0.0,1,1,12.3,1,1.0,0,1.0,0,1.0,0,1.0
39925,43876,'1',0.00449321,0.01375,0.00356,148.0,148.0,148.0,0.0,0.0,0.0,0.0,1,1,1.6,1,1.0,0,1.0,0,1.0,0,1.0
39926,45587,'1',0.0524975,0.17158,0.00243,73.75,73.75,73.75,0.0,0.0,0.0,0.0,1,1,5.8,1,1.0,0,1.0,0,1.0,0,1.0
39927,43931,'1',0.167645,0.50699,0.00843,73.75,73.75,73.75,0.0,0.0,0.0,0.0,1,1,18.9,1,1.0,0,1.0,0,1.0,0,1.0
39928,44005,'1',0.00234929,0.0071,0.00012,73.75,73.75,73.75,0.0,0.0,0.0,0.0,1,1,0.0,1,1.0,0,1.0,0,1.0,0,1.0
39929,43533,'1',0.0265979,0.0898,0.00119,73.75,73.75,73.75,0.0,0.0,0.0,0.0,1,1,3.3,1,1.0,0,1.0,0,1.0,0,1.0
39931,43557,'1',0.0805082,0.22754,0.00433,73.75,73.75,73.75,0.0,0.0,0.0,0.0,1,1,9.0,1,1.0,0,1.0,0,1.0,0,1.0
39934,43729,'1',0.000648929,0.00679,0.00193,327.0,327.0,327.0,0.0,0.0,0.0,0.0,1,1,0.8,1,1.0,0,1.0,0,1.0,0,1.0
39935,44108,'1',0.0381389,0.11365,0.00194,73.75,73.75,73.75,0.0,0.0,0.0,0.0,1,1,4.1,1,1.0,0,1.0,0,1.0,0,1.0
39935,44110,'1',0.0352557,0.10654,0.00177,73.75,73.75,73.75,0.0,0.0,0.0,0.0,1,1,4.1,1,1.0,0,1.0,0,1.0,0,1.0
39937,43766,'1',0.0180468,0.05523,0.01431,148.0,148.0,148.0,0.0,0.0,0.0,0.0,1,1,8.2,1,1.0,0,1.0,0,1.0,0,1.0
39937,75513,'1',1e-07,0.00016,0.0,625.0,625.0,625.0,0.0,0.0,0.0,0.0,1,1,0.01,1,1.0,0,1.0,0,1.0,0,1.0
39937,76961,'1',0.00499429,0.06006,0.0206,384.0,384.0,384.0,0.0,0.0,0.0,0.0,1,1,9.9,1,1.0,0,1.0,0,1.0,0,1.0
39938,76961,'1',0.00167571,0.02946,0.00935,480.0,480.0,480.0,0.0,0.0,0.0,0.0,1,1,4.9,1,1.0,0,1.0,0,1.0,0,1.0
39939,43575,'1',0.0627407,0.19427,0.00307,73.75,73.75,73.75,0.0,0.0,0.0,0.0,1,1,6.6,1,1.0,0,1.0,0,1.0,0,1.0
39939,43577,'1',0.00284214,0.00785,0.00016,73.75,73.75,73.75,0.0,0.0,0.0,0.0,1,1,0.0,1,1.0,0,1.0,0,1.0,0,1.0
39940,43342,'1',0.00639071,0.01874,0.00033,73.75,73.75,73.75,0.0,0.0,0.0,0.0,1,1,0.8,1,1.0,0,1.0,0,1.0,0,1.0
39940,43347,'1',0.02346,0.06991,0.0012,73.75,73.75,73.75,0.0,0.0,0.0,0.0,1,1,2.5,1,1.0,0,1.0,0,1.0,0,1.0
39943,43697,'1',0.0120339,0.03587,0.00061,73.75,73.75,73.75,0.0,0.0,0.0,0.0,1,1,1.6,1,1.0,0,1.0,0,1.0,0,1.0
39943,43706,'1',0.0274111,0.08168,0.0014,73.75,73.75,73.75,0.0,0.0,0.0,0.0,1,1,3.3,1,1.0,0,1.0,0,1.0,0,1.0
39945,43379,'1',0.0693039,0.2443,0.00297,73.75,73.75,73.75,0.0,0.0,0.0,0.0,1,1,7.4,1,1.0,0,1.0,0,1.0,0,1.0
39945,43381,'1',0.0561118,0.17373,0.00275,73.75,73.75,73.75,0.0,0.0,0.0,0.0,1,1,6.6,1,1.0,0,1.0,0,1.0,0,1.0
39945,44103,'1',0.19771,0.6128,0.0097,73.75,73.75,73.75,0.0,0.0,0.0,0.0,1,1,22.2,1,1.0,0,1.0,0,1.0,0,1.0
39946,43560,'1',0.0613607,0.17342,0.0033,73.75,73.75,73.75,0.0,0.0,0.0,0.0,1,1,6.6,1,1.0,0,1.0,0,1.0,0,1.0
39946,44077,'1',0.00716286,0.02304,0.00034,73.75,73.75,73.75,0.0,0.0,0.0,0.0,1,1,0.8,1,1.0,0,1.0,0,1.0,0,1.0
39952,44076,'1',0.0371779,0.10268,0.00205,73.75,73.75,73.75,0.0,0.0,0.0,0.0,1,1,4.1,1,1.0,0,1.0,0,1.0,0,1.0
39953,41952,'1',0.0145229,0.08308,0.00127,110.0,110.0,110.0,0.0,0.0,0.0,0.0,1,1,3.3,1,1.0,0,1.0,0,1.0,0,1.0
39953,43153,'1',0.0126582,0.13221,0.00235,163.75,163.75,163.75,0.0,0.0,0.0,0.0,1,1,4.9,1,1.0,0,1.0,0,1.0,0,1.0
39953,43186,'1',0.0151718,0.15336,0.00375,176.25,176.25,176.25,0.0,0.0,0.0,0.0,1,1,6.6,1,1.0,0,1.0,0,1.0,0,1.0
39954,42667,'1',0.00239036,0.04244,0.00085,194.0,194.0,194.0,0.0,0.0,0.0,0.0,1,1,1.6,1,1.0,0,1.0,0,1.0,0,1.0
39955,42332,'1',0.0090275,0.13734,0.00375,194.0,194.0,194.0,0.0,0.0,0.0,0.0,1,1,6.6,1,1.0,0,1.0,0,1.0,0,1.0
39955,42345,'1',0.0036225,0.06219,0.00133,194.0,194.0,194.0,0.0,0.0,0.0,0.0,1,1,2.5,1,1.0,0,1.0,0,1.0,0,1.0
39956,41659,'1',0.0355186,0.1584,0.004,110.0,110.0,110.0,0.0,0.0,0.0,0.0,1,1,7.4,1,1.0,0,1.0,0,1.0,0,1.0
39956,42519,'1',0.0544361,0.21255,0.00526,100.0,100.0,100.0,0.0,0.0,0.0,0.0,1,1,9.9,1,1.0,0,1.0,0,1.0,0,1.0
39957,42332,'1',0.145056,0.44936,0.00711,73.75,73.75,73.75,0.0,0.0,0.0,0.0,1,1,16.4,1,1.0,0,1.0,0,1.0,0,1.0
39957,43134,'1',0.0187861,0.19976,0.00495,183.75,183.75,183.75,0.0,0.0,0.0,0.0,1,1,9.0,1,1.0,0,1.0,0,1.0,0,1.0
39957,43147,'1',0.00483,0.06644,0.00223,194.0,194.0,194.0,0.0,0.0,0.0,0.0,1,1,3.3,1,1.0,0,1.0,0,1.0,0,1.0
39958,75570,'1',0.000131429,0.00172,0.01652,885.0,885.0,885.0,0.0,0.0,0.0,0.0,1,1,1.6,1,1.0,0,1.0,0,1.0,0,1.0
39958,76816,'1',0.000106786,0.00306,0.05775,1185.0,1185.0,1185.0,0.0,0.0,0.0,0.0,1,1,4.1,1,1.0,0,1.0,0,1.0,0,1.0
39958,77027,'1',0.000246429,0.00493,0.07691,1185.0,1185.0,1185.0,0.0,0.0,0.0,0.0,1,1,5.8,1,1.0,0,1.0,0,1.0,0,1.0
39959,42962,'1',0.0120996,0.03419,0.01042,148.0,148.0,148.0,0.0,0.0,0.0,0.0,1,1,5.8,1,1.0,0,1.0,0,1.0,0,1.0
39959,76515,'1',0.00391,0.03583,0.00994,298.0,298.0,298.0,0.0,0.0,0.0,0.0,1,1,5.8,1,1.0,0,1.0,0,1.0,0,1.0
39959,76521,'1',0.002563,0.03155,0.00928,87.0,87.0,87.0,0.0,0.0,0.0,0.0,1,1,4.9,1,1.0,0,1.0,0,1.0,0,1.0
39959,76521,'2',0.002563,0.03155,0.00928,87.0,87.0,87.0,0.0,0.0,0.0,0.0,1,1,4.9,1,1.0,0,1.0,0,1.0,0,1.0
39960,39968,'1',0.0001725,0.00204,0.00084,407.0,407.0,407.0,0.0,0.0,0.0,0.0,1,1,0.0,1,1.0,0,1.0,0,1.0,0,1.0
39960,76668,'1',0.000599643,0.00845,0.00451,627.0,627.0,627.0,0.0,0.0,0.0,0.0,1,1,1.6,1,1.0,0,1.0,0,1.0,0,1.0
39960,76676,'1',0.00160179,0.02001,0.00633,384.0,384.0,384.0,0.0,0.0,0.0,0.0,1,1,3.3,1,1.0,0,1.0,0,1.0,0,1.0
39960,76678,'1',0.00181536,0.01259,0.00364,257.0,257.0,257.0,0.0,0.0,0.0,0.0,1,1,1.6,1,1.0,0,1.0,0,1.0,0,1.0
39961,42900,'1',0.0118286,0.15082,0.0023,176.25,176.25,176.25,0.0,0.0,0.0,0.0,1,1,4.9,1,1.0,0,1.0,0,1.0,0,1.0
39961,42901,'1',0.0669382,0.2912,0.00578,100.0,100.0,100.0,0.0,0.0,0.0,0.0,1,1,11.5,1,1.0,0,1.0,0,1.0,0,1.0
39961,42912,'1',0.090735,0.46224,0.00666,100.0,100.0,100.0,0.0,0.0,0.0,0.0,1,1,15.6,1,1.0,0,1.0,0,1.0,0,1.0
39962,42840,'1',0.02415,0.18668,0.00531,156.25,156.25,156.25,0.0,0.0,0.0,0.0,1,1,9.0,1,1.0,0,1.0,0,1.0,0,1.0
39963,40289,'1',0.156737,0.48,0.00778,73.75,73.75,73.75,0.0,0.0,0.0,0.0,1,1,17.3,1,1.0,0,1.0,0,1.0,0,1.0
39963,41900,'1',0.07176,0.51403,0.00608,115.0,115.0,115.0,0.0,0.0,0.0,0.0,1,1,15.6,1,1.0,0,1.0,0,1.0,0,1.0
39963,42006,'1',0.0218254,0.14326,0.00289,128.75,128.75,128.75,0.0,0.0,0.0,0.0,1,1,5.8,1,1.0,0,1.0,0,1.0,0,1.0
39964,41932,'1',0.132381,0.40021,0.00665,73.75,73.75,73.75,0.0,0.0,0.0,0.0,1,1,14.8,1,1.0,0,1.0,0,1.0,0,1.0
39964,41934,'1',0.0814693,0.255,0.00395,73.75,73.75,73.75,0.0,0.0,0.0,0.0,1,1,9.0,1,1.0,0,1.0,0,1.0,0,1.0
39964,41936,'1',0.0845414,0.2555,0.00425,73.75,73.75,73.75,0.0,0.0,0.0,0.0,1,1,9.0,1,1.0,0,1.0,0,1.0,0,1.0
39965,41931,'1',0.0505425,0.15274,0.00254,73.75,73.75,73.75,0.0,0.0,0.0,0.0,1,1,5.8,1,1.0,0,1.0,0,1.0,0,1.0
39965,41934,'1',0.0245196,0.07069,0.00129,73.75,73.75,73.75,0.0,0.0,0.0,0.0,1,1,2.5,1,1.0,0,1.0,0,1.0,0,1.0
39965,42711,'1',0.144095,0.41566,0.0076,73.75,73.75,73.75,0.0,0.0,0.0,0.0,1,1,16.4,1,1.0,0,1.0,0,1.0,0,1.0
39965,42713,'1',0.098785,0.30592,0.00484,73.75,73.75,73.75,0.0,0.0,0.0,0.0,1,1,10.7,1,1.0,0,1.0,0,1.0,0,1.0
...